Program Version,EnergyPlus, Version 9.2.0-921312fa1d, YMD=2020.12.22 18:03
! <Version>, Version ID
 Version, 9.2
! <Timesteps per Hour>, #TimeSteps, Minutes per TimeStep {minutes}
 Timesteps per Hour,  6, 10
! <System Convergence Limits>, Minimum System TimeStep {minutes}, Max HVAC Iterations, Minimum Plant Iterations, Maximum Plant Iterations
 System Convergence Limits, 2, 25, 2, 8
! <Simulation Control>, Do Zone Sizing, Do System Sizing, Do Plant Sizing, Do Design Days, Do Weather Simulation, Do HVAC Sizing Simulation
 Simulation Control, Yes, Yes, Yes, No, Yes, No
! <Output Reporting Tolerances>, Tolerance for Time Heating Setpoint Not Met, Tolerance for Zone Cooling Setpoint Not Met Time
 Output Reporting Tolerances, 0.556, 0.556, 
! <Site:GroundTemperature:BuildingSurface>,Jan{C},Feb{C},Mar{C},Apr{C},May{C},Jun{C},Jul{C},Aug{C},Sep{C},Oct{C},Nov{C},Dec{C}
 Site:GroundTemperature:BuildingSurface,  19.53,  19.50,  19.54,  19.60,  20.00,  21.64,  22.23,  22.38,  21.45,  20.12,  19.80,  19.63
! <Site:GroundTemperature:FCfactorMethod>,Jan{C},Feb{C},Mar{C},Apr{C},May{C},Jun{C},Jul{C},Aug{C},Sep{C},Oct{C},Nov{C},Dec{C}
 Site:GroundTemperature:FCfactorMethod,  -1.89,  -3.06,  -0.99,   2.23,  10.68,  17.20,  21.60,  22.94,  20.66,  15.60,   8.83,   2.56
! <Site:GroundTemperature:Shallow>,Jan{C},Feb{C},Mar{C},Apr{C},May{C},Jun{C},Jul{C},Aug{C},Sep{C},Oct{C},Nov{C},Dec{C}
 Site:GroundTemperature:Shallow,  13.00,  13.00,  13.00,  13.00,  13.00,  13.00,  13.00,  13.00,  13.00,  13.00,  13.00,  13.00
! <Site:GroundTemperature:Deep>,Jan{C},Feb{C},Mar{C},Apr{C},May{C},Jun{C},Jul{C},Aug{C},Sep{C},Oct{C},Nov{C},Dec{C}
 Site:GroundTemperature:Deep,  16.00,  16.00,  16.00,  16.00,  16.00,  16.00,  16.00,  16.00,  16.00,  16.00,  16.00,  16.00
! <Site:GroundReflectance>,Jan{dimensionless},Feb{dimensionless},Mar{dimensionless},Apr{dimensionless},May{dimensionless},Jun{dimensionless},Jul{dimensionless},Aug{dimensionless},Sep{dimensionless},Oct{dimensionless},Nov{dimensionless},Dec{dimensionless}
 Site:GroundReflectance,  0.20,  0.20,  0.20,  0.20,  0.20,  0.20,  0.20,  0.20,  0.20,  0.20,  0.20,  0.20
! <Site:GroundReflectance:SnowModifier>, Normal, Daylighting {dimensionless}
 Site:GroundReflectance:SnowModifier,   1.000,   1.000
! <Site:GroundReflectance:Snow>,Jan{dimensionless},Feb{dimensionless},Mar{dimensionless},Apr{dimensionless},May{dimensionless},Jun{dimensionless},Jul{dimensionless},Aug{dimensionless},Sep{dimensionless},Oct{dimensionless},Nov{dimensionless},Dec{dimensionless}
 Site:GroundReflectance:Snow,  0.20,  0.20,  0.20,  0.20,  0.20,  0.20,  0.20,  0.20,  0.20,  0.20,  0.20,  0.20
! <Site:GroundReflectance:Snow:Daylighting>,Jan{dimensionless},Feb{dimensionless},Mar{dimensionless},Apr{dimensionless},May{dimensionless},Jun{dimensionless},Jul{dimensionless},Aug{dimensionless},Sep{dimensionless},Oct{dimensionless},Nov{dimensionless},Dec{dimensionless}
 Site:GroundReflectance:Snow:Daylighting,  0.20,  0.20,  0.20,  0.20,  0.20,  0.20,  0.20,  0.20,  0.20,  0.20,  0.20,  0.20
! <Environment:Weather Station>,Wind Sensor Height Above Ground {m},Wind Speed Profile Exponent {},Wind Speed Profile Boundary Layer Thickness {m},Air Temperature Sensor Height Above Ground {m},Wind Speed Modifier Coefficient-Internal,Temperature Modifier Coefficient-Internal
Environment:Weather Station,10.000,0.140,270.000,1.500,1.586,9.750E-003
! <Site:Location>, Location Name, Latitude {N+/S- Deg}, Longitude {E+/W- Deg},  Time Zone Number {GMT+/-}, Elevation {m},  Standard Pressure at Elevation {Pa}, Standard RhoAir at Elevation
Site:Location,Chicago Ohare Intl Ap IL USA TMY3 WMO#=725300,41.98,-87.92,-6.00,201.00,98934,1.1759
! <Site Water Mains Temperature Information>,Calculation Method{},Water Mains Temperature Schedule Name{},Annual Average Outdoor Air Temperature{C},Maximum Difference In Monthly Average Outdoor Air Temperatures{deltaC},Fixed Default Water Mains Temperature{C}
Site Water Mains Temperature Information,Correlation,NA,9.69,28.10,NA
! Schedule Details Report=Hourly =====================
! <ScheduleType>,Name,Limited? {Yes/No},Minimum,Maximum,Continuous? {Yes/No - Discrete}
! <DaySchedule>,Name,ScheduleType,Interpolated {Yes/No},Time (HH:MM) =>,01:00,02:00,03:00,04:00,05:00,06:00,07:00,08:00,09:00,10:00,11:00,12:00,13:00,14:00,15:00,16:00,17:00,18:00,19:00,20:00,21:00,22:00,23:00,24:00
! <WeekSchedule>,Name,Sunday,Monday,Tuesday,Wednesday,Thursday,Friday,Saturday,Holiday,SummerDesignDay,WinterDesignDay,CustomDay1,CustomDay2
! <Schedule>,Name,ScheduleType,{Until Date,WeekSchedule}** Repeated until Dec 31
ScheduleTypeLimits,ANY NUMBER,No,N/A,N/A,N/A
ScheduleTypeLimits,FRACTION,Average,0.00,1.00,Yes
ScheduleTypeLimits,TEMPERATURE,Average,-60.00,200.00,Yes
ScheduleTypeLimits,ON/OFF,Average,0,1,No
ScheduleTypeLimits,CONTROL TYPE,Average,0,4,No
ScheduleTypeLimits,HUMIDITY,Average,10.00,90.00,Yes
ScheduleTypeLimits,NUMBER,No,N/A,N/A,N/A
DaySchedule,ALWAYS_ON_dy_1,ON/OFF,No,Values:,1.00,1.00,1.00,1.00,1.00,1.00,1.00,1.00,1.00,1.00,1.00,1.00,1.00,1.00,1.00,1.00,1.00,1.00,1.00,1.00,1.00,1.00,1.00,1.00
DaySchedule,BLDG_EQUIP_SCH_dy_1,FRACTION,No,Values:,0.35,0.35,0.35,0.35,0.35,0.35,0.35,0.35,0.95,0.95,0.95,0.95,0.95,0.95,0.95,0.95,0.95,0.35,0.35,0.35,0.35,0.35,0.35,0.35
DaySchedule,BLDG_EQUIP_SCH_dy_2,FRACTION,No,Values:,0.35,0.35,0.35,0.35,0.35,0.35,0.35,0.35,0.35,0.35,0.35,0.35,0.35,0.35,0.35,0.35,0.35,0.35,0.35,0.35,0.35,0.35,0.35,0.35
DaySchedule,BLDG_EQUIP_SCH_dy_3,FRACTION,No,Values:,0.25,0.25,0.25,0.25,0.25,0.25,0.25,0.25,0.50,0.50,0.50,0.50,0.50,0.50,0.50,0.50,0.50,0.25,0.25,0.25,0.25,0.25,0.25,0.25
DaySchedule,BLDG_EQUIP_SCH_dy_4,FRACTION,No,Values:,0.25,0.25,0.25,0.25,0.25,0.25,0.25,0.25,0.25,0.25,0.25,0.25,0.25,0.25,0.25,0.25,0.25,0.25,0.25,0.25,0.25,0.25,0.25,0.25
DaySchedule,BLDG_EQUIP_SCH_dy_5,FRACTION,No,Values:,0.35,0.35,0.35,0.35,0.35,0.35,0.35,0.35,0.95,0.95,0.95,0.95,0.95,0.95,0.95,0.95,0.95,0.35,0.35,0.35,0.35,0.35,0.35,0.35
DaySchedule,BLDG_EQUIP_SCH_dy_6,FRACTION,No,Values:,0.35,0.35,0.35,0.35,0.35,0.35,0.35,0.35,0.35,0.35,0.35,0.35,0.35,0.35,0.35,0.35,0.35,0.35,0.35,0.35,0.35,0.35,0.35,0.35
DaySchedule,BLDG_LIGHT_SCH_dy_1,FRACTION,No,Values:,0.18,0.18,0.18,0.18,0.18,0.18,0.18,0.90,0.90,0.90,0.90,0.90,0.90,0.90,0.90,0.90,0.90,0.90,0.90,0.90,0.90,0.18,0.18,0.18
DaySchedule,BLDG_LIGHT_SCH_dy_2,FRACTION,No,Values:,0.18,0.18,0.18,0.18,0.18,0.18,0.18,0.18,0.18,0.18,0.18,0.18,0.18,0.18,0.18,0.18,0.18,0.18,0.18,0.18,0.18,0.18,0.18,0.18
DaySchedule,BLDG_LIGHT_SCH_dy_3,FRACTION,No,Values:,0.18,0.18,0.18,0.18,0.18,0.18,0.18,0.18,0.50,0.50,0.50,0.50,0.50,0.50,0.50,0.50,0.50,0.50,0.50,0.50,0.18,0.18,0.18,0.18
DaySchedule,BLDG_LIGHT_SCH_dy_4,FRACTION,No,Values:,0.18,0.18,0.18,0.18,0.18,0.18,0.18,0.18,0.18,0.18,0.18,0.18,0.18,0.18,0.18,0.18,0.18,0.18,0.18,0.18,0.18,0.18,0.18,0.18
DaySchedule,BLDG_LIGHT_SCH_dy_5,FRACTION,No,Values:,0.18,0.18,0.18,0.18,0.18,0.18,0.18,0.90,0.90,0.90,0.90,0.90,0.90,0.90,0.90,0.90,0.90,0.90,0.90,0.90,0.90,0.18,0.18,0.18
DaySchedule,BLDG_LIGHT_SCH_dy_6,FRACTION,No,Values:,0.18,0.18,0.18,0.18,0.18,0.18,0.18,0.18,0.18,0.18,0.18,0.18,0.18,0.18,0.18,0.18,0.18,0.18,0.18,0.18,0.18,0.18,0.18,0.18
DaySchedule,BLDG_OCC_SCH_dy_1,FRACTION,No,Values:,0.00,0.00,0.00,0.00,0.00,0.00,0.00,0.00,0.75,0.75,0.75,0.75,0.75,0.75,0.75,0.75,0.15,0.15,0.15,0.15,0.15,0.00,0.00,0.00
DaySchedule,BLDG_OCC_SCH_dy_2,FRACTION,No,Values:,0.00,0.00,0.00,0.00,0.00,0.00,0.00,0.00,0.00,0.00,0.00,0.00,0.00,0.00,0.00,0.00,0.00,0.00,0.00,0.00,0.00,0.00,0.00,0.00
DaySchedule,BLDG_OCC_SCH_dy_3,FRACTION,No,Values:,0.00,0.00,0.00,0.00,0.00,0.00,0.00,0.00,0.15,0.15,0.15,0.15,0.15,0.15,0.15,0.15,0.15,0.15,0.15,0.15,0.15,0.00,0.00,0.00
DaySchedule,BLDG_OCC_SCH_dy_4,FRACTION,No,Values:,0.00,0.00,0.00,0.00,0.00,0.00,0.00,0.00,0.00,0.00,0.00,0.00,0.00,0.00,0.00,0.00,0.00,0.00,0.00,0.00,0.00,0.00,0.00,0.00
DaySchedule,BLDG_OCC_SCH_dy_5,FRACTION,No,Values:,0.00,0.00,0.00,0.00,0.00,0.00,0.00,0.00,0.75,0.75,0.75,0.75,0.75,0.75,0.75,0.75,0.15,0.15,0.15,0.15,0.15,0.00,0.00,0.00
DaySchedule,BLDG_OCC_SCH_dy_6,FRACTION,No,Values:,0.00,0.00,0.00,0.00,0.00,0.00,0.00,0.00,0.00,0.00,0.00,0.00,0.00,0.00,0.00,0.00,0.00,0.00,0.00,0.00,0.00,0.00,0.00,0.00
DaySchedule,BLDG_OCC_SCH_CAFETERIA_dy_1,FRACTION,No,Values:,0.00,0.00,0.00,0.00,0.00,0.00,0.00,0.15,0.15,5.00E-002,5.00E-002,0.95,0.95,0.15,0.15,0.00,0.00,0.00,0.00,0.00,0.00,0.00,0.00,0.00
DaySchedule,BLDG_OCC_SCH_CAFETERIA_dy_2,FRACTION,No,Values:,0.00,0.00,0.00,0.00,0.00,0.00,0.00,0.00,0.00,0.00,0.00,0.00,0.00,0.00,0.00,0.00,0.00,0.00,0.00,0.00,0.00,0.00,0.00,0.00
DaySchedule,BLDG_OCC_SCH_CAFETERIA_dy_3,FRACTION,No,Values:,0.00,0.00,0.00,0.00,0.00,0.00,0.00,0.00,0.00,0.25,0.25,0.25,0.25,0.25,0.25,0.00,0.00,0.00,0.00,0.00,0.00,0.00,0.00,0.00
DaySchedule,BLDG_OCC_SCH_CAFETERIA_dy_4,FRACTION,No,Values:,0.00,0.00,0.00,0.00,0.00,0.00,0.00,0.00,0.00,0.00,0.00,0.00,0.00,0.00,0.00,0.00,0.00,0.00,0.00,0.00,0.00,0.00,0.00,0.00
DaySchedule,BLDG_OCC_SCH_CAFETERIA_dy_5,FRACTION,No,Values:,0.00,0.00,0.00,0.00,0.00,0.00,0.00,0.15,0.15,5.00E-002,5.00E-002,0.95,0.95,0.15,0.15,0.00,0.00,0.00,0.00,0.00,0.00,0.00,0.00,0.00
DaySchedule,BLDG_OCC_SCH_CAFETERIA_dy_6,FRACTION,No,Values:,0.00,0.00,0.00,0.00,0.00,0.00,0.00,0.00,0.00,0.00,0.00,0.00,0.00,0.00,0.00,0.00,0.00,0.00,0.00,0.00,0.00,0.00,0.00,0.00
DaySchedule,BLDG_OCC_SCH_GYM_dy_1,FRACTION,No,Values:,0.00,0.00,0.00,0.00,0.00,0.00,0.00,0.00,0.35,0.35,0.35,0.35,0.35,0.35,0.35,0.35,0.95,0.95,0.95,0.95,0.95,0.00,0.00,0.00
DaySchedule,BLDG_OCC_SCH_GYM_dy_2,FRACTION,No,Values:,0.00,0.00,0.00,0.00,0.00,0.00,0.00,0.00,0.00,0.00,0.00,0.00,0.00,0.00,0.00,0.00,0.00,0.00,0.00,0.00,0.00,0.00,0.00,0.00
DaySchedule,BLDG_OCC_SCH_GYM_dy_3,FRACTION,No,Values:,0.00,0.00,0.00,0.00,0.00,0.00,0.00,0.00,0.35,0.35,0.35,0.35,0.35,0.35,0.35,0.35,0.35,0.35,0.35,0.35,0.35,0.00,0.00,0.00
DaySchedule,BLDG_OCC_SCH_GYM_dy_4,FRACTION,No,Values:,0.00,0.00,0.00,0.00,0.00,0.00,0.00,0.00,0.00,0.00,0.00,0.00,0.00,0.00,0.00,0.00,0.00,0.00,0.00,0.00,0.00,0.00,0.00,0.00
DaySchedule,BLDG_OCC_SCH_GYM_dy_5,FRACTION,No,Values:,0.00,0.00,0.00,0.00,0.00,0.00,0.00,0.00,0.35,0.35,0.35,0.35,0.35,0.35,0.35,0.35,0.95,0.95,0.95,0.95,0.95,0.00,0.00,0.00
DaySchedule,BLDG_OCC_SCH_GYM_dy_6,FRACTION,No,Values:,0.00,0.00,0.00,0.00,0.00,0.00,0.00,0.00,0.00,0.00,0.00,0.00,0.00,0.00,0.00,0.00,0.00,0.00,0.00,0.00,0.00,0.00,0.00,0.00
DaySchedule,BLDG_OCC_SCH_OFFICES_dy_1,FRACTION,No,Values:,0.00,0.00,0.00,0.00,0.00,0.00,0.00,0.00,0.95,0.95,0.95,0.95,0.95,0.95,0.95,0.95,0.95,0.15,0.15,0.15,0.15,0.00,0.00,0.00
DaySchedule,BLDG_OCC_SCH_OFFICES_dy_2,FRACTION,No,Values:,0.00,0.00,0.00,0.00,0.00,0.00,0.00,0.00,0.00,0.00,0.00,0.00,0.00,0.00,0.00,0.00,0.00,0.00,0.00,0.00,0.00,0.00,0.00,0.00
DaySchedule,BLDG_OCC_SCH_OFFICES_dy_3,FRACTION,No,Values:,0.00,0.00,0.00,0.00,0.00,0.00,0.00,0.00,0.50,0.50,0.50,0.50,0.50,0.50,0.50,0.50,0.50,0.00,0.00,0.00,0.00,0.00,0.00,0.00
DaySchedule,BLDG_OCC_SCH_OFFICES_dy_4,FRACTION,No,Values:,0.00,0.00,0.00,0.00,0.00,0.00,0.00,0.00,0.00,0.00,0.00,0.00,0.00,0.00,0.00,0.00,0.00,0.00,0.00,0.00,0.00,0.00,0.00,0.00
DaySchedule,BLDG_OCC_SCH_OFFICES_dy_5,FRACTION,No,Values:,0.00,0.00,0.00,0.00,0.00,0.00,0.00,0.00,0.95,0.95,0.95,0.95,0.95,0.95,0.95,0.95,0.95,0.15,0.15,0.15,0.15,0.00,0.00,0.00
DaySchedule,BLDG_OCC_SCH_OFFICES_dy_6,FRACTION,No,Values:,0.00,0.00,0.00,0.00,0.00,0.00,0.00,0.00,0.00,0.00,0.00,0.00,0.00,0.00,0.00,0.00,0.00,0.00,0.00,0.00,0.00,0.00,0.00,0.00
DaySchedule,KITCHEN_ELEC_EQUIP_SCH_dy_1,FRACTION,No,Values:,0.10,0.10,0.10,0.10,0.10,0.10,0.10,0.10,0.15,0.15,0.25,0.25,0.25,0.15,0.15,0.10,0.10,0.10,0.10,0.10,0.10,0.10,0.10,0.10
DaySchedule,KITCHEN_ELEC_EQUIP_SCH_dy_2,FRACTION,No,Values:,0.10,0.10,0.10,0.10,0.10,0.10,0.10,0.10,0.10,0.10,0.10,0.10,0.10,0.10,0.10,0.10,0.10,0.10,0.10,0.10,0.10,0.10,0.10,0.10
DaySchedule,KITCHEN_ELEC_EQUIP_SCH_dy_3,FRACTION,No,Values:,0.10,0.10,0.10,0.10,0.10,0.10,0.10,0.10,0.13,0.13,0.20,0.20,0.20,0.13,0.13,0.10,0.10,0.10,0.10,0.10,0.10,0.10,0.10,0.10
DaySchedule,KITCHEN_ELEC_EQUIP_SCH_dy_4,FRACTION,No,Values:,0.10,0.10,0.10,0.10,0.10,0.10,0.10,0.10,0.10,0.10,0.10,0.10,0.10,0.10,0.10,0.10,0.10,0.10,0.10,0.10,0.10,0.10,0.10,0.10
DaySchedule,KITCHEN_ELEC_EQUIP_SCH_dy_5,FRACTION,No,Values:,0.10,0.10,0.10,0.10,0.10,0.10,0.10,0.10,0.15,0.15,0.25,0.25,0.25,0.15,0.15,0.10,0.10,0.10,0.10,0.10,0.10,0.10,0.10,0.10
DaySchedule,KITCHEN_ELEC_EQUIP_SCH_dy_6,FRACTION,No,Values:,0.10,0.10,0.10,0.10,0.10,0.10,0.10,0.10,0.10,0.10,0.10,0.10,0.10,0.10,0.10,0.10,0.10,0.10,0.10,0.10,0.10,0.10,0.10,0.10
DaySchedule,KITCHEN_GAS_EQUIP_SCH_dy_1,FRACTION,No,Values:,2.00E-002,2.00E-002,2.00E-002,2.00E-002,2.00E-002,2.00E-002,2.00E-002,2.00E-002,0.15,0.15,0.20,0.20,0.20,0.10,0.10,2.00E-002,2.00E-002,2.00E-002,2.00E-002,2.00E-002,2.00E-002,2.00E-002,2.00E-002,2.00E-002
DaySchedule,KITCHEN_GAS_EQUIP_SCH_dy_2,FRACTION,No,Values:,2.00E-002,2.00E-002,2.00E-002,2.00E-002,2.00E-002,2.00E-002,2.00E-002,2.00E-002,2.00E-002,2.00E-002,2.00E-002,2.00E-002,2.00E-002,2.00E-002,2.00E-002,2.00E-002,2.00E-002,2.00E-002,2.00E-002,2.00E-002,2.00E-002,2.00E-002,2.00E-002,2.00E-002
DaySchedule,KITCHEN_GAS_EQUIP_SCH_dy_3,FRACTION,No,Values:,2.00E-002,2.00E-002,2.00E-002,2.00E-002,2.00E-002,2.00E-002,2.00E-002,2.00E-002,0.10,0.10,0.15,0.15,0.15,0.10,0.10,2.00E-002,2.00E-002,2.00E-002,2.00E-002,2.00E-002,2.00E-002,2.00E-002,2.00E-002,2.00E-002
DaySchedule,KITCHEN_GAS_EQUIP_SCH_dy_4,FRACTION,No,Values:,2.00E-002,2.00E-002,2.00E-002,2.00E-002,2.00E-002,2.00E-002,2.00E-002,2.00E-002,2.00E-002,2.00E-002,2.00E-002,2.00E-002,2.00E-002,2.00E-002,2.00E-002,2.00E-002,2.00E-002,2.00E-002,2.00E-002,2.00E-002,2.00E-002,2.00E-002,2.00E-002,2.00E-002
DaySchedule,KITCHEN_GAS_EQUIP_SCH_dy_5,FRACTION,No,Values:,2.00E-002,2.00E-002,2.00E-002,2.00E-002,2.00E-002,2.00E-002,2.00E-002,2.00E-002,0.15,0.15,0.20,0.20,0.20,0.10,0.10,2.00E-002,2.00E-002,2.00E-002,2.00E-002,2.00E-002,2.00E-002,2.00E-002,2.00E-002,2.00E-002
DaySchedule,KITCHEN_GAS_EQUIP_SCH_dy_6,FRACTION,No,Values:,2.00E-002,2.00E-002,2.00E-002,2.00E-002,2.00E-002,2.00E-002,2.00E-002,2.00E-002,2.00E-002,2.00E-002,2.00E-002,2.00E-002,2.00E-002,2.00E-002,2.00E-002,2.00E-002,2.00E-002,2.00E-002,2.00E-002,2.00E-002,2.00E-002,2.00E-002,2.00E-002,2.00E-002
DaySchedule,KITCHEN_EXHAUST_SCH_dy_1,FRACTION,No,Values:,0.00,0.00,0.00,0.00,0.00,0.00,1.00,1.00,1.00,1.00,1.00,1.00,1.00,1.00,1.00,1.00,1.00,1.00,1.00,1.00,1.00,0.00,0.00,0.00
DaySchedule,KITCHEN_EXHAUST_SCH_dy_2,FRACTION,No,Values:,0.00,0.00,0.00,0.00,0.00,0.00,0.00,0.00,0.00,0.00,0.00,0.00,0.00,0.00,0.00,0.00,0.00,0.00,0.00,0.00,0.00,0.00,0.00,0.00
DaySchedule,INFIL_SCH_dy_1,FRACTION,No,Values:,1.00,1.00,1.00,1.00,1.00,1.00,1.00,0.50,0.50,0.50,0.50,0.50,0.50,0.50,0.50,0.50,0.50,0.50,0.50,0.50,0.50,1.00,1.00,1.00
DaySchedule,WORK_EFF_SCH_dy_1,FRACTION,No,Values:,0.00,0.00,0.00,0.00,0.00,0.00,0.00,0.00,0.00,0.00,0.00,0.00,0.00,0.00,0.00,0.00,0.00,0.00,0.00,0.00,0.00,0.00,0.00,0.00
DaySchedule,CLOTHING_SCH_dy_1,ANY NUMBER,No,Values:,1.10,1.10,1.10,1.10,1.10,1.10,1.10,1.10,1.10,1.10,1.10,1.10,1.10,1.10,1.10,1.10,1.10,1.10,1.10,1.10,1.10,1.10,1.10,1.10
DaySchedule,CLOTHING_SCH_dy_2,ANY NUMBER,No,Values:,0.60,0.60,0.60,0.60,0.60,0.60,0.60,0.60,0.60,0.60,0.60,0.60,0.60,0.60,0.60,0.60,0.60,0.60,0.60,0.60,0.60,0.60,0.60,0.60
DaySchedule,CLOTHING_SCH_dy_3,ANY NUMBER,No,Values:,1.10,1.10,1.10,1.10,1.10,1.10,1.10,1.10,1.10,1.10,1.10,1.10,1.10,1.10,1.10,1.10,1.10,1.10,1.10,1.10,1.10,1.10,1.10,1.10
DaySchedule,ACTIVITY_SCH_dy_1,ANY NUMBER,No,Values:,120.00,120.00,120.00,120.00,120.00,120.00,120.00,120.00,120.00,120.00,120.00,120.00,120.00,120.00,120.00,120.00,120.00,120.00,120.00,120.00,120.00,120.00,120.00,120.00
DaySchedule,AIR_VELO_SCH_dy_1,ANY NUMBER,No,Values:,0.20,0.20,0.20,0.20,0.20,0.20,0.20,0.20,0.20,0.20,0.20,0.20,0.20,0.20,0.20,0.20,0.20,0.20,0.20,0.20,0.20,0.20,0.20,0.20
DaySchedule,CLGSETP_SCH_dy_1,TEMPERATURE,No,Values:,24.00,24.00,24.00,24.00,24.00,24.00,24.00,24.00,24.00,24.00,24.00,24.00,24.00,24.00,24.00,24.00,24.00,24.00,24.00,24.00,24.00,24.00,24.00,24.00
DaySchedule,CLGSETP_SCH_dy_2,TEMPERATURE,No,Values:,27.00,27.00,27.00,27.00,27.00,27.00,27.00,27.00,27.00,27.00,27.00,27.00,27.00,27.00,27.00,27.00,27.00,27.00,27.00,27.00,27.00,27.00,27.00,27.00
DaySchedule,CLGSETP_SCH_dy_3,TEMPERATURE,No,Values:,27.00,27.00,27.00,27.00,27.00,27.00,24.00,24.00,24.00,24.00,24.00,24.00,24.00,24.00,24.00,24.00,24.00,24.00,24.00,24.00,24.00,27.00,27.00,27.00
DaySchedule,CLGSETP_SCH_dy_4,TEMPERATURE,No,Values:,24.00,24.00,24.00,24.00,24.00,24.00,24.00,24.00,24.00,24.00,24.00,24.00,24.00,24.00,24.00,24.00,24.00,24.00,24.00,24.00,24.00,24.00,24.00,24.00
DaySchedule,CLGSETP_SCH_dy_5,TEMPERATURE,No,Values:,27.00,27.00,27.00,27.00,27.00,27.00,27.00,27.00,27.00,27.00,27.00,27.00,27.00,27.00,27.00,27.00,27.00,27.00,27.00,27.00,27.00,27.00,27.00,27.00
DaySchedule,CLGSETP_SCH_dy_6,TEMPERATURE,No,Values:,27.00,27.00,27.00,27.00,27.00,27.00,27.00,24.00,24.00,24.00,24.00,24.00,24.00,24.00,24.00,24.00,24.00,24.00,27.00,27.00,27.00,27.00,27.00,27.00
DaySchedule,CLGSETP_SCH_dy_7,TEMPERATURE,No,Values:,24.00,24.00,24.00,24.00,24.00,24.00,24.00,24.00,24.00,24.00,24.00,24.00,24.00,24.00,24.00,24.00,24.00,24.00,24.00,24.00,24.00,24.00,24.00,24.00
DaySchedule,CLGSETP_SCH_dy_8,TEMPERATURE,No,Values:,27.00,27.00,27.00,27.00,27.00,27.00,27.00,27.00,27.00,27.00,27.00,27.00,27.00,27.00,27.00,27.00,27.00,27.00,27.00,27.00,27.00,27.00,27.00,27.00
DaySchedule,CLGSETP_SCH_dy_9,TEMPERATURE,No,Values:,27.00,27.00,27.00,27.00,27.00,27.00,24.00,24.00,24.00,24.00,24.00,24.00,24.00,24.00,24.00,24.00,24.00,24.00,24.00,24.00,24.00,27.00,27.00,27.00
DaySchedule,CLGSETP_SCH_BATHCORRMECHKITCHEN_dy_1,TEMPERATURE,No,Values:,27.00,27.00,27.00,27.00,27.00,27.00,24.00,24.00,24.00,24.00,24.00,24.00,24.00,24.00,24.00,24.00,24.00,24.00,24.00,24.00,24.00,27.00,27.00,27.00
DaySchedule,CLGSETP_SCH_BATHCORRMECHKITCHEN_dy_2,TEMPERATURE,No,Values:,27.00,27.00,27.00,27.00,27.00,27.00,27.00,27.00,27.00,27.00,27.00,27.00,27.00,27.00,27.00,27.00,27.00,27.00,27.00,27.00,27.00,27.00,27.00,27.00
DaySchedule,HTGSETP_SCH_dy_1,TEMPERATURE,No,Values:,21.00,21.00,21.00,21.00,21.00,21.00,21.00,21.00,21.00,21.00,21.00,21.00,21.00,21.00,21.00,21.00,21.00,21.00,21.00,21.00,21.00,21.00,21.00,21.00
DaySchedule,HTGSETP_SCH_dy_2,TEMPERATURE,No,Values:,16.00,16.00,16.00,16.00,16.00,16.00,16.00,16.00,16.00,16.00,16.00,16.00,16.00,16.00,16.00,16.00,16.00,16.00,16.00,16.00,16.00,16.00,16.00,16.00
DaySchedule,HTGSETP_SCH_dy_3,TEMPERATURE,No,Values:,16.00,16.00,16.00,16.00,16.00,16.00,21.00,21.00,21.00,21.00,21.00,21.00,21.00,21.00,21.00,21.00,21.00,21.00,21.00,21.00,21.00,16.00,16.00,16.00
DaySchedule,HTGSETP_SCH_dy_4,TEMPERATURE,No,Values:,21.00,21.00,21.00,21.00,21.00,21.00,21.00,21.00,21.00,21.00,21.00,21.00,21.00,21.00,21.00,21.00,21.00,21.00,21.00,21.00,21.00,21.00,21.00,21.00
DaySchedule,HTGSETP_SCH_dy_5,TEMPERATURE,No,Values:,16.00,16.00,16.00,16.00,16.00,16.00,16.00,16.00,16.00,16.00,16.00,16.00,16.00,16.00,16.00,16.00,16.00,16.00,16.00,16.00,16.00,16.00,16.00,16.00
DaySchedule,HTGSETP_SCH_dy_6,TEMPERATURE,No,Values:,16.00,16.00,16.00,16.00,16.00,16.00,16.00,21.00,21.00,21.00,21.00,21.00,21.00,21.00,21.00,21.00,21.00,21.00,16.00,16.00,16.00,16.00,16.00,16.00
DaySchedule,HTGSETP_SCH_dy_7,TEMPERATURE,No,Values:,21.00,21.00,21.00,21.00,21.00,21.00,21.00,21.00,21.00,21.00,21.00,21.00,21.00,21.00,21.00,21.00,21.00,21.00,21.00,21.00,21.00,21.00,21.00,21.00
DaySchedule,HTGSETP_SCH_dy_8,TEMPERATURE,No,Values:,16.00,16.00,16.00,16.00,16.00,16.00,16.00,16.00,16.00,16.00,16.00,16.00,16.00,16.00,16.00,16.00,16.00,16.00,16.00,16.00,16.00,16.00,16.00,16.00
DaySchedule,HTGSETP_SCH_dy_9,TEMPERATURE,No,Values:,16.00,16.00,16.00,16.00,16.00,16.00,21.00,21.00,21.00,21.00,21.00,21.00,21.00,21.00,21.00,21.00,21.00,21.00,21.00,21.00,21.00,16.00,16.00,16.00
DaySchedule,HTGSETP_SCH_BATHCORRMECHKITCHEN_dy_1,TEMPERATURE,No,Values:,16.00,16.00,16.00,16.00,16.00,16.00,21.00,21.00,21.00,21.00,21.00,21.00,21.00,21.00,21.00,21.00,21.00,21.00,21.00,21.00,21.00,16.00,16.00,16.00
DaySchedule,HTGSETP_SCH_BATHCORRMECHKITCHEN_dy_2,TEMPERATURE,No,Values:,16.00,16.00,16.00,16.00,16.00,16.00,16.00,16.00,16.00,16.00,16.00,16.00,16.00,16.00,16.00,16.00,16.00,16.00,16.00,16.00,16.00,16.00,16.00,16.00
DaySchedule,HVACOPERATIONSCHD_dy_1,ON/OFF,No,Values:,0.00,0.00,0.00,0.00,0.00,0.00,1.00,1.00,1.00,1.00,1.00,1.00,1.00,1.00,1.00,1.00,1.00,1.00,1.00,1.00,1.00,0.00,0.00,0.00
DaySchedule,HVACOPERATIONSCHD_dy_2,ON/OFF,No,Values:,0.00,0.00,0.00,0.00,0.00,0.00,0.00,0.00,0.00,0.00,0.00,0.00,0.00,0.00,0.00,0.00,0.00,0.00,0.00,0.00,0.00,0.00,0.00,0.00
DaySchedule,MINOA_SCHED_dy_1,ON/OFF,No,Values:,0.00,0.00,0.00,0.00,0.00,0.00,1.00,1.00,1.00,1.00,1.00,1.00,1.00,1.00,1.00,1.00,1.00,1.00,1.00,1.00,1.00,0.00,0.00,0.00
DaySchedule,MINOA_SCHED_dy_2,ON/OFF,No,Values:,0.00,0.00,0.00,0.00,0.00,0.00,0.00,0.00,0.00,0.00,0.00,0.00,0.00,0.00,0.00,0.00,0.00,0.00,0.00,0.00,0.00,0.00,0.00,0.00
DaySchedule,SEASONAL-RESET-SUPPLY-AIR-TEMP-SCH_dy_1,TEMPERATURE,No,Values:,12.80,12.80,12.80,12.80,12.80,12.80,12.80,12.80,12.80,12.80,12.80,12.80,12.80,12.80,12.80,12.80,12.80,12.80,12.80,12.80,12.80,12.80,12.80,12.80
DaySchedule,DUAL ZONE CONTROL TYPE SCHED_dy_1,CONTROL TYPE,No,Values:,4.00,4.00,4.00,4.00,4.00,4.00,4.00,4.00,4.00,4.00,4.00,4.00,4.00,4.00,4.00,4.00,4.00,4.00,4.00,4.00,4.00,4.00,4.00,4.00
DaySchedule,HW-LOOP-TEMP-SCHEDULE_dy_1,TEMPERATURE,No,Values:,67.00,67.00,67.00,67.00,67.00,67.00,67.00,67.00,67.00,67.00,67.00,67.00,67.00,67.00,67.00,67.00,67.00,67.00,67.00,67.00,67.00,67.00,67.00,67.00
DaySchedule,PLANTONSCHED_dy_1,ANY NUMBER,No,Values:,1.00,1.00,1.00,1.00,1.00,1.00,1.00,1.00,1.00,1.00,1.00,1.00,1.00,1.00,1.00,1.00,1.00,1.00,1.00,1.00,1.00,1.00,1.00,1.00
DaySchedule,KITCHEN_ZN_1_FLR_1_CASE:1_WALKINFREEZER_CASECREDITREDUXSCHED_dy_1,FRACTION,No,Values:,0.20,0.20,0.20,0.20,0.20,0.20,0.20,0.40,0.40,0.40,0.40,0.40,0.40,0.40,0.40,0.40,0.40,0.40,0.40,0.40,0.40,0.20,0.20,0.20
DaySchedule,KITCHEN_ZN_1_FLR_1_CASE:1_WALKINFREEZER_CASEDEFROST2ADAYSCHED_dy_1,ON/OFF,Average,Values:,0.00,0.00,0.00,0.00,0.00,0.00,0.00,0.00,0.00,0.00,0.00,0.00,0.00,0.00,0.00,0.00,0.00,0.00,0.00,0.00,0.00,0.00,0.00,0.00
DaySchedule,KITCHEN_ZN_1_FLR_1_CASE:1_WALKINFREEZER_CASEDRIPDOWN2ADAYSCHED_dy_1,ON/OFF,Average,Values:,0.00,0.00,0.00,0.00,0.00,0.00,0.00,0.00,0.00,0.00,0.00,0.00,0.00,0.00,0.00,0.00,0.00,0.00,0.00,0.00,0.00,0.00,0.00,0.00
DaySchedule,KITCHEN_ZN_1_FLR_1_CASE:1_WALKINFREEZER_WALKINSTOCKINGSCHED_dy_1,ANY NUMBER,No,Values:,0.00,0.00,0.00,0.00,725.00,417.00,290.00,0.00,0.00,0.00,0.00,0.00,0.00,0.00,0.00,0.00,0.00,0.00,0.00,0.00,0.00,0.00,0.00,0.00
DaySchedule,KITCHEN_ZN_1_FLR_1_CASE:1_WALKINFREEZER_WALKINSTOCKINGSCHED_dy_2,ANY NUMBER,No,Values:,0.00,0.00,0.00,0.00,125.00,117.00,90.00,0.00,0.00,0.00,0.00,0.00,0.00,0.00,0.00,0.00,0.00,0.00,0.00,125.00,117.00,90.00,0.00,0.00
DaySchedule,KITCHEN_ZN_1_FLR_1_CASE:2_SELFCONTAINEDDISPLAYCASE_CASESTOCKINGSCHED_dy_1,ANY NUMBER,No,Values:,0.00,0.00,0.00,0.00,0.00,0.00,50.00,70.00,70.00,80.00,70.00,50.00,50.00,80.00,90.00,80.00,0.00,0.00,0.00,0.00,0.00,0.00,0.00,0.00
DaySchedule,BLDG_SWH_SCH_dy_1,FRACTION,No,Values:,5.00E-002,5.00E-002,5.00E-002,5.00E-002,5.00E-002,5.00E-002,5.00E-002,0.10,0.34,0.60,0.63,0.72,0.79,0.83,0.61,0.65,0.10,0.10,0.19,0.25,0.22,0.22,0.12,9.00E-002
DaySchedule,BLDG_SWH_SCH_dy_2,FRACTION,No,Values:,3.00E-002,3.00E-002,3.00E-002,3.00E-002,3.00E-002,3.00E-002,3.00E-002,3.00E-002,3.00E-002,5.00E-002,5.00E-002,5.00E-002,5.00E-002,3.00E-002,3.00E-002,3.00E-002,3.00E-002,3.00E-002,3.00E-002,3.00E-002,3.00E-002,3.00E-002,3.00E-002,3.00E-002
DaySchedule,BLDG_SWH_SCH_dy_3,FRACTION,No,Values:,3.00E-002,3.00E-002,3.00E-002,3.00E-002,3.00E-002,3.00E-002,3.00E-002,3.00E-002,5.00E-002,5.00E-002,5.00E-002,5.00E-002,5.00E-002,5.00E-002,3.00E-002,3.00E-002,3.00E-002,3.00E-002,3.00E-002,3.00E-002,3.00E-002,3.00E-002,3.00E-002,3.00E-002
DaySchedule,BLDG_SWH_SCH_dy_4,FRACTION,No,Values:,5.00E-002,5.00E-002,5.00E-002,5.00E-002,5.00E-002,5.00E-002,5.00E-002,0.10,0.10,0.10,0.10,0.10,0.10,0.10,0.10,0.10,0.10,0.10,0.19,0.25,0.22,0.22,0.12,9.00E-002
DaySchedule,BLDG_SWH_SCH_dy_5,FRACTION,No,Values:,3.00E-002,3.00E-002,3.00E-002,3.00E-002,3.00E-002,3.00E-002,3.00E-002,3.00E-002,3.00E-002,5.00E-002,5.00E-002,5.00E-002,5.00E-002,3.00E-002,3.00E-002,3.00E-002,3.00E-002,3.00E-002,3.00E-002,3.00E-002,3.00E-002,3.00E-002,3.00E-002,3.00E-002
DaySchedule,BLDG_SWH_SCH_dy_6,FRACTION,No,Values:,3.00E-002,3.00E-002,3.00E-002,3.00E-002,3.00E-002,3.00E-002,3.00E-002,3.00E-002,5.00E-002,5.00E-002,5.00E-002,5.00E-002,5.00E-002,5.00E-002,3.00E-002,3.00E-002,3.00E-002,3.00E-002,3.00E-002,3.00E-002,3.00E-002,3.00E-002,3.00E-002,3.00E-002
DaySchedule,BLDG_SWH_SCH_dy_7,FRACTION,No,Values:,5.00E-002,5.00E-002,5.00E-002,5.00E-002,5.00E-002,5.00E-002,5.00E-002,0.10,0.34,0.60,0.63,0.72,0.79,0.83,0.61,0.65,0.10,0.10,0.19,0.25,0.22,0.22,0.12,9.00E-002
DaySchedule,BLDG_SWH_SCH_dy_8,FRACTION,No,Values:,3.00E-002,3.00E-002,3.00E-002,3.00E-002,3.00E-002,3.00E-002,3.00E-002,3.00E-002,3.00E-002,5.00E-002,5.00E-002,5.00E-002,5.00E-002,3.00E-002,3.00E-002,3.00E-002,3.00E-002,3.00E-002,3.00E-002,3.00E-002,3.00E-002,3.00E-002,3.00E-002,3.00E-002
DaySchedule,BLDG_SWH_SCH_dy_9,FRACTION,No,Values:,3.00E-002,3.00E-002,3.00E-002,3.00E-002,3.00E-002,3.00E-002,3.00E-002,3.00E-002,5.00E-002,5.00E-002,5.00E-002,5.00E-002,5.00E-002,5.00E-002,3.00E-002,3.00E-002,3.00E-002,3.00E-002,3.00E-002,3.00E-002,3.00E-002,3.00E-002,3.00E-002,3.00E-002
DaySchedule,SHW_DEFAULT LATENT FRACT SCHED_dy_1,FRACTION,No,Values:,5.00E-002,5.00E-002,5.00E-002,5.00E-002,5.00E-002,5.00E-002,5.00E-002,5.00E-002,5.00E-002,5.00E-002,5.00E-002,5.00E-002,5.00E-002,5.00E-002,5.00E-002,5.00E-002,5.00E-002,5.00E-002,5.00E-002,5.00E-002,5.00E-002,5.00E-002,5.00E-002,5.00E-002
DaySchedule,SHW_DEFAULT SENSIBLE FRACT SCHED_dy_1,FRACTION,No,Values:,0.20,0.20,0.20,0.20,0.20,0.20,0.20,0.20,0.20,0.20,0.20,0.20,0.20,0.20,0.20,0.20,0.20,0.20,0.20,0.20,0.20,0.20,0.20,0.20
DaySchedule,SHW_BATH HOT SUPPLY TEMP SCHED_dy_1,TEMPERATURE,No,Values:,43.30,43.30,43.30,43.30,43.30,43.30,43.30,43.30,43.30,43.30,43.30,43.30,43.30,43.30,43.30,43.30,43.30,43.30,43.30,43.30,43.30,43.30,43.30,43.30
DaySchedule,SHW_BATH TEMP SCHED_dy_1,TEMPERATURE,No,Values:,43.30,43.30,43.30,43.30,43.30,43.30,43.30,43.30,43.30,43.30,43.30,43.30,43.30,43.30,43.30,43.30,43.30,43.30,43.30,43.30,43.30,43.30,43.30,43.30
DaySchedule,SHW_KITCHEN HOT SUPPLY TEMP SCHED_dy_1,TEMPERATURE,No,Values:,49.00,49.00,49.00,49.00,49.00,49.00,49.00,49.00,49.00,49.00,49.00,49.00,49.00,49.00,49.00,49.00,49.00,49.00,49.00,49.00,49.00,49.00,49.00,49.00
DaySchedule,SHW_KITCHEN TEMP SCHED_dy_1,TEMPERATURE,No,Values:,49.00,49.00,49.00,49.00,49.00,49.00,49.00,49.00,49.00,49.00,49.00,49.00,49.00,49.00,49.00,49.00,49.00,49.00,49.00,49.00,49.00,49.00,49.00,49.00
DaySchedule,SWHSYS1 WATER HEATER AMBIENT TEMPERATURE SCHEDULE NAME_dy_1,TEMPERATURE,No,Values:,22.00,22.00,22.00,22.00,22.00,22.00,22.00,22.00,22.00,22.00,22.00,22.00,22.00,22.00,22.00,22.00,22.00,22.00,22.00,22.00,22.00,22.00,22.00,22.00
DaySchedule,SWHSYS1 WATER HEATER SETPOINT TEMPERATURE SCHEDULE NAME_dy_1,TEMPERATURE,No,Values:,60.00,60.00,60.00,60.00,60.00,60.00,60.00,60.00,60.00,60.00,60.00,60.00,60.00,60.00,60.00,60.00,60.00,60.00,60.00,60.00,60.00,60.00,60.00,60.00
DaySchedule,SWHSYS1-LOOP-TEMP-SCHEDULE_dy_1,TEMPERATURE,No,Values:,60.00,60.00,60.00,60.00,60.00,60.00,60.00,60.00,60.00,60.00,60.00,60.00,60.00,60.00,60.00,60.00,60.00,60.00,60.00,60.00,60.00,60.00,60.00,60.00
Schedule:Week:Daily,ALWAYS_ON_wk_1,ALWAYS_ON_dy_1,ALWAYS_ON_dy_1,ALWAYS_ON_dy_1,ALWAYS_ON_dy_1,ALWAYS_ON_dy_1,ALWAYS_ON_dy_1,ALWAYS_ON_dy_1,ALWAYS_ON_dy_1,ALWAYS_ON_dy_1,ALWAYS_ON_dy_1,ALWAYS_ON_dy_1,ALWAYS_ON_dy_1
Schedule:Week:Daily,BLDG_EQUIP_SCH_wk_1,BLDG_EQUIP_SCH_dy_2,BLDG_EQUIP_SCH_dy_1,BLDG_EQUIP_SCH_dy_1,BLDG_EQUIP_SCH_dy_1,BLDG_EQUIP_SCH_dy_1,BLDG_EQUIP_SCH_dy_1,BLDG_EQUIP_SCH_dy_2,BLDG_EQUIP_SCH_dy_2,BLDG_EQUIP_SCH_dy_1,BLDG_EQUIP_SCH_dy_2,BLDG_EQUIP_SCH_dy_2,BLDG_EQUIP_SCH_dy_2
Schedule:Week:Daily,BLDG_EQUIP_SCH_wk_2,BLDG_EQUIP_SCH_dy_4,BLDG_EQUIP_SCH_dy_3,BLDG_EQUIP_SCH_dy_3,BLDG_EQUIP_SCH_dy_3,BLDG_EQUIP_SCH_dy_3,BLDG_EQUIP_SCH_dy_3,BLDG_EQUIP_SCH_dy_4,BLDG_EQUIP_SCH_dy_4,BLDG_EQUIP_SCH_dy_3,BLDG_EQUIP_SCH_dy_4,BLDG_EQUIP_SCH_dy_4,BLDG_EQUIP_SCH_dy_4
Schedule:Week:Daily,BLDG_EQUIP_SCH_wk_3,BLDG_EQUIP_SCH_dy_6,BLDG_EQUIP_SCH_dy_5,BLDG_EQUIP_SCH_dy_5,BLDG_EQUIP_SCH_dy_5,BLDG_EQUIP_SCH_dy_5,BLDG_EQUIP_SCH_dy_5,BLDG_EQUIP_SCH_dy_6,BLDG_EQUIP_SCH_dy_6,BLDG_EQUIP_SCH_dy_5,BLDG_EQUIP_SCH_dy_6,BLDG_EQUIP_SCH_dy_6,BLDG_EQUIP_SCH_dy_6
Schedule:Week:Daily,BLDG_LIGHT_SCH_wk_1,BLDG_LIGHT_SCH_dy_2,BLDG_LIGHT_SCH_dy_1,BLDG_LIGHT_SCH_dy_1,BLDG_LIGHT_SCH_dy_1,BLDG_LIGHT_SCH_dy_1,BLDG_LIGHT_SCH_dy_1,BLDG_LIGHT_SCH_dy_2,BLDG_LIGHT_SCH_dy_2,BLDG_LIGHT_SCH_dy_1,BLDG_LIGHT_SCH_dy_2,BLDG_LIGHT_SCH_dy_2,BLDG_LIGHT_SCH_dy_2
Schedule:Week:Daily,BLDG_LIGHT_SCH_wk_2,BLDG_LIGHT_SCH_dy_4,BLDG_LIGHT_SCH_dy_3,BLDG_LIGHT_SCH_dy_3,BLDG_LIGHT_SCH_dy_3,BLDG_LIGHT_SCH_dy_3,BLDG_LIGHT_SCH_dy_3,BLDG_LIGHT_SCH_dy_4,BLDG_LIGHT_SCH_dy_4,BLDG_LIGHT_SCH_dy_3,BLDG_LIGHT_SCH_dy_4,BLDG_LIGHT_SCH_dy_4,BLDG_LIGHT_SCH_dy_4
Schedule:Week:Daily,BLDG_LIGHT_SCH_wk_3,BLDG_LIGHT_SCH_dy_6,BLDG_LIGHT_SCH_dy_5,BLDG_LIGHT_SCH_dy_5,BLDG_LIGHT_SCH_dy_5,BLDG_LIGHT_SCH_dy_5,BLDG_LIGHT_SCH_dy_5,BLDG_LIGHT_SCH_dy_6,BLDG_LIGHT_SCH_dy_6,BLDG_LIGHT_SCH_dy_5,BLDG_LIGHT_SCH_dy_6,BLDG_LIGHT_SCH_dy_6,BLDG_LIGHT_SCH_dy_6
Schedule:Week:Daily,BLDG_OCC_SCH_wk_1,BLDG_OCC_SCH_dy_2,BLDG_OCC_SCH_dy_1,BLDG_OCC_SCH_dy_1,BLDG_OCC_SCH_dy_1,BLDG_OCC_SCH_dy_1,BLDG_OCC_SCH_dy_1,BLDG_OCC_SCH_dy_2,BLDG_OCC_SCH_dy_2,BLDG_OCC_SCH_dy_1,BLDG_OCC_SCH_dy_2,BLDG_OCC_SCH_dy_2,BLDG_OCC_SCH_dy_2
Schedule:Week:Daily,BLDG_OCC_SCH_wk_2,BLDG_OCC_SCH_dy_4,BLDG_OCC_SCH_dy_3,BLDG_OCC_SCH_dy_3,BLDG_OCC_SCH_dy_3,BLDG_OCC_SCH_dy_3,BLDG_OCC_SCH_dy_3,BLDG_OCC_SCH_dy_4,BLDG_OCC_SCH_dy_4,BLDG_OCC_SCH_dy_3,BLDG_OCC_SCH_dy_4,BLDG_OCC_SCH_dy_4,BLDG_OCC_SCH_dy_4
Schedule:Week:Daily,BLDG_OCC_SCH_wk_3,BLDG_OCC_SCH_dy_6,BLDG_OCC_SCH_dy_5,BLDG_OCC_SCH_dy_5,BLDG_OCC_SCH_dy_5,BLDG_OCC_SCH_dy_5,BLDG_OCC_SCH_dy_5,BLDG_OCC_SCH_dy_6,BLDG_OCC_SCH_dy_6,BLDG_OCC_SCH_dy_5,BLDG_OCC_SCH_dy_6,BLDG_OCC_SCH_dy_6,BLDG_OCC_SCH_dy_6
Schedule:Week:Daily,BLDG_OCC_SCH_CAFETERIA_wk_1,BLDG_OCC_SCH_CAFETERIA_dy_2,BLDG_OCC_SCH_CAFETERIA_dy_1,BLDG_OCC_SCH_CAFETERIA_dy_1,BLDG_OCC_SCH_CAFETERIA_dy_1,BLDG_OCC_SCH_CAFETERIA_dy_1,BLDG_OCC_SCH_CAFETERIA_dy_1,BLDG_OCC_SCH_CAFETERIA_dy_2,BLDG_OCC_SCH_CAFETERIA_dy_2,BLDG_OCC_SCH_CAFETERIA_dy_1,BLDG_OCC_SCH_CAFETERIA_dy_2,BLDG_OCC_SCH_CAFETERIA_dy_2,BLDG_OCC_SCH_CAFETERIA_dy_2
Schedule:Week:Daily,BLDG_OCC_SCH_CAFETERIA_wk_2,BLDG_OCC_SCH_CAFETERIA_dy_4,BLDG_OCC_SCH_CAFETERIA_dy_3,BLDG_OCC_SCH_CAFETERIA_dy_3,BLDG_OCC_SCH_CAFETERIA_dy_3,BLDG_OCC_SCH_CAFETERIA_dy_3,BLDG_OCC_SCH_CAFETERIA_dy_3,BLDG_OCC_SCH_CAFETERIA_dy_4,BLDG_OCC_SCH_CAFETERIA_dy_4,BLDG_OCC_SCH_CAFETERIA_dy_3,BLDG_OCC_SCH_CAFETERIA_dy_4,BLDG_OCC_SCH_CAFETERIA_dy_4,BLDG_OCC_SCH_CAFETERIA_dy_4
Schedule:Week:Daily,BLDG_OCC_SCH_CAFETERIA_wk_3,BLDG_OCC_SCH_CAFETERIA_dy_6,BLDG_OCC_SCH_CAFETERIA_dy_5,BLDG_OCC_SCH_CAFETERIA_dy_5,BLDG_OCC_SCH_CAFETERIA_dy_5,BLDG_OCC_SCH_CAFETERIA_dy_5,BLDG_OCC_SCH_CAFETERIA_dy_5,BLDG_OCC_SCH_CAFETERIA_dy_6,BLDG_OCC_SCH_CAFETERIA_dy_6,BLDG_OCC_SCH_CAFETERIA_dy_5,BLDG_OCC_SCH_CAFETERIA_dy_6,BLDG_OCC_SCH_CAFETERIA_dy_6,BLDG_OCC_SCH_CAFETERIA_dy_6
Schedule:Week:Daily,BLDG_OCC_SCH_GYM_wk_1,BLDG_OCC_SCH_GYM_dy_2,BLDG_OCC_SCH_GYM_dy_1,BLDG_OCC_SCH_GYM_dy_1,BLDG_OCC_SCH_GYM_dy_1,BLDG_OCC_SCH_GYM_dy_1,BLDG_OCC_SCH_GYM_dy_1,BLDG_OCC_SCH_GYM_dy_2,BLDG_OCC_SCH_GYM_dy_2,BLDG_OCC_SCH_GYM_dy_1,BLDG_OCC_SCH_GYM_dy_2,BLDG_OCC_SCH_GYM_dy_2,BLDG_OCC_SCH_GYM_dy_2
Schedule:Week:Daily,BLDG_OCC_SCH_GYM_wk_2,BLDG_OCC_SCH_GYM_dy_4,BLDG_OCC_SCH_GYM_dy_3,BLDG_OCC_SCH_GYM_dy_3,BLDG_OCC_SCH_GYM_dy_3,BLDG_OCC_SCH_GYM_dy_3,BLDG_OCC_SCH_GYM_dy_3,BLDG_OCC_SCH_GYM_dy_4,BLDG_OCC_SCH_GYM_dy_4,BLDG_OCC_SCH_GYM_dy_3,BLDG_OCC_SCH_GYM_dy_4,BLDG_OCC_SCH_GYM_dy_4,BLDG_OCC_SCH_GYM_dy_4
Schedule:Week:Daily,BLDG_OCC_SCH_GYM_wk_3,BLDG_OCC_SCH_GYM_dy_6,BLDG_OCC_SCH_GYM_dy_5,BLDG_OCC_SCH_GYM_dy_5,BLDG_OCC_SCH_GYM_dy_5,BLDG_OCC_SCH_GYM_dy_5,BLDG_OCC_SCH_GYM_dy_5,BLDG_OCC_SCH_GYM_dy_6,BLDG_OCC_SCH_GYM_dy_6,BLDG_OCC_SCH_GYM_dy_5,BLDG_OCC_SCH_GYM_dy_6,BLDG_OCC_SCH_GYM_dy_6,BLDG_OCC_SCH_GYM_dy_6
Schedule:Week:Daily,BLDG_OCC_SCH_OFFICES_wk_1,BLDG_OCC_SCH_OFFICES_dy_2,BLDG_OCC_SCH_OFFICES_dy_1,BLDG_OCC_SCH_OFFICES_dy_1,BLDG_OCC_SCH_OFFICES_dy_1,BLDG_OCC_SCH_OFFICES_dy_1,BLDG_OCC_SCH_OFFICES_dy_1,BLDG_OCC_SCH_OFFICES_dy_2,BLDG_OCC_SCH_OFFICES_dy_2,BLDG_OCC_SCH_OFFICES_dy_1,BLDG_OCC_SCH_OFFICES_dy_2,BLDG_OCC_SCH_OFFICES_dy_2,BLDG_OCC_SCH_OFFICES_dy_2
Schedule:Week:Daily,BLDG_OCC_SCH_OFFICES_wk_2,BLDG_OCC_SCH_OFFICES_dy_4,BLDG_OCC_SCH_OFFICES_dy_3,BLDG_OCC_SCH_OFFICES_dy_3,BLDG_OCC_SCH_OFFICES_dy_3,BLDG_OCC_SCH_OFFICES_dy_3,BLDG_OCC_SCH_OFFICES_dy_3,BLDG_OCC_SCH_OFFICES_dy_4,BLDG_OCC_SCH_OFFICES_dy_4,BLDG_OCC_SCH_OFFICES_dy_3,BLDG_OCC_SCH_OFFICES_dy_4,BLDG_OCC_SCH_OFFICES_dy_4,BLDG_OCC_SCH_OFFICES_dy_4
Schedule:Week:Daily,BLDG_OCC_SCH_OFFICES_wk_3,BLDG_OCC_SCH_OFFICES_dy_6,BLDG_OCC_SCH_OFFICES_dy_5,BLDG_OCC_SCH_OFFICES_dy_5,BLDG_OCC_SCH_OFFICES_dy_5,BLDG_OCC_SCH_OFFICES_dy_5,BLDG_OCC_SCH_OFFICES_dy_5,BLDG_OCC_SCH_OFFICES_dy_6,BLDG_OCC_SCH_OFFICES_dy_6,BLDG_OCC_SCH_OFFICES_dy_5,BLDG_OCC_SCH_OFFICES_dy_6,BLDG_OCC_SCH_OFFICES_dy_6,BLDG_OCC_SCH_OFFICES_dy_6
Schedule:Week:Daily,KITCHEN_ELEC_EQUIP_SCH_wk_1,KITCHEN_ELEC_EQUIP_SCH_dy_2,KITCHEN_ELEC_EQUIP_SCH_dy_1,KITCHEN_ELEC_EQUIP_SCH_dy_1,KITCHEN_ELEC_EQUIP_SCH_dy_1,KITCHEN_ELEC_EQUIP_SCH_dy_1,KITCHEN_ELEC_EQUIP_SCH_dy_1,KITCHEN_ELEC_EQUIP_SCH_dy_2,KITCHEN_ELEC_EQUIP_SCH_dy_2,KITCHEN_ELEC_EQUIP_SCH_dy_1,KITCHEN_ELEC_EQUIP_SCH_dy_2,KITCHEN_ELEC_EQUIP_SCH_dy_2,KITCHEN_ELEC_EQUIP_SCH_dy_2
Schedule:Week:Daily,KITCHEN_ELEC_EQUIP_SCH_wk_2,KITCHEN_ELEC_EQUIP_SCH_dy_4,KITCHEN_ELEC_EQUIP_SCH_dy_3,KITCHEN_ELEC_EQUIP_SCH_dy_3,KITCHEN_ELEC_EQUIP_SCH_dy_3,KITCHEN_ELEC_EQUIP_SCH_dy_3,KITCHEN_ELEC_EQUIP_SCH_dy_3,KITCHEN_ELEC_EQUIP_SCH_dy_4,KITCHEN_ELEC_EQUIP_SCH_dy_4,KITCHEN_ELEC_EQUIP_SCH_dy_3,KITCHEN_ELEC_EQUIP_SCH_dy_4,KITCHEN_ELEC_EQUIP_SCH_dy_4,KITCHEN_ELEC_EQUIP_SCH_dy_4
Schedule:Week:Daily,KITCHEN_ELEC_EQUIP_SCH_wk_3,KITCHEN_ELEC_EQUIP_SCH_dy_6,KITCHEN_ELEC_EQUIP_SCH_dy_5,KITCHEN_ELEC_EQUIP_SCH_dy_5,KITCHEN_ELEC_EQUIP_SCH_dy_5,KITCHEN_ELEC_EQUIP_SCH_dy_5,KITCHEN_ELEC_EQUIP_SCH_dy_5,KITCHEN_ELEC_EQUIP_SCH_dy_6,KITCHEN_ELEC_EQUIP_SCH_dy_6,KITCHEN_ELEC_EQUIP_SCH_dy_5,KITCHEN_ELEC_EQUIP_SCH_dy_6,KITCHEN_ELEC_EQUIP_SCH_dy_6,KITCHEN_ELEC_EQUIP_SCH_dy_6
Schedule:Week:Daily,KITCHEN_GAS_EQUIP_SCH_wk_1,KITCHEN_GAS_EQUIP_SCH_dy_2,KITCHEN_GAS_EQUIP_SCH_dy_1,KITCHEN_GAS_EQUIP_SCH_dy_1,KITCHEN_GAS_EQUIP_SCH_dy_1,KITCHEN_GAS_EQUIP_SCH_dy_1,KITCHEN_GAS_EQUIP_SCH_dy_1,KITCHEN_GAS_EQUIP_SCH_dy_2,KITCHEN_GAS_EQUIP_SCH_dy_2,KITCHEN_GAS_EQUIP_SCH_dy_1,KITCHEN_GAS_EQUIP_SCH_dy_2,KITCHEN_GAS_EQUIP_SCH_dy_2,KITCHEN_GAS_EQUIP_SCH_dy_2
Schedule:Week:Daily,KITCHEN_GAS_EQUIP_SCH_wk_2,KITCHEN_GAS_EQUIP_SCH_dy_4,KITCHEN_GAS_EQUIP_SCH_dy_3,KITCHEN_GAS_EQUIP_SCH_dy_3,KITCHEN_GAS_EQUIP_SCH_dy_3,KITCHEN_GAS_EQUIP_SCH_dy_3,KITCHEN_GAS_EQUIP_SCH_dy_3,KITCHEN_GAS_EQUIP_SCH_dy_4,KITCHEN_GAS_EQUIP_SCH_dy_4,KITCHEN_GAS_EQUIP_SCH_dy_3,KITCHEN_GAS_EQUIP_SCH_dy_4,KITCHEN_GAS_EQUIP_SCH_dy_4,KITCHEN_GAS_EQUIP_SCH_dy_4
Schedule:Week:Daily,KITCHEN_GAS_EQUIP_SCH_wk_3,KITCHEN_GAS_EQUIP_SCH_dy_6,KITCHEN_GAS_EQUIP_SCH_dy_5,KITCHEN_GAS_EQUIP_SCH_dy_5,KITCHEN_GAS_EQUIP_SCH_dy_5,KITCHEN_GAS_EQUIP_SCH_dy_5,KITCHEN_GAS_EQUIP_SCH_dy_5,KITCHEN_GAS_EQUIP_SCH_dy_6,KITCHEN_GAS_EQUIP_SCH_dy_6,KITCHEN_GAS_EQUIP_SCH_dy_5,KITCHEN_GAS_EQUIP_SCH_dy_6,KITCHEN_GAS_EQUIP_SCH_dy_6,KITCHEN_GAS_EQUIP_SCH_dy_6
Schedule:Week:Daily,KITCHEN_EXHAUST_SCH_wk_1,KITCHEN_EXHAUST_SCH_dy_2,KITCHEN_EXHAUST_SCH_dy_1,KITCHEN_EXHAUST_SCH_dy_1,KITCHEN_EXHAUST_SCH_dy_1,KITCHEN_EXHAUST_SCH_dy_1,KITCHEN_EXHAUST_SCH_dy_1,KITCHEN_EXHAUST_SCH_dy_2,KITCHEN_EXHAUST_SCH_dy_2,KITCHEN_EXHAUST_SCH_dy_1,KITCHEN_EXHAUST_SCH_dy_2,KITCHEN_EXHAUST_SCH_dy_2,KITCHEN_EXHAUST_SCH_dy_2
Schedule:Week:Daily,INFIL_SCH_wk_1,INFIL_SCH_dy_1,INFIL_SCH_dy_1,INFIL_SCH_dy_1,INFIL_SCH_dy_1,INFIL_SCH_dy_1,INFIL_SCH_dy_1,INFIL_SCH_dy_1,INFIL_SCH_dy_1,INFIL_SCH_dy_1,INFIL_SCH_dy_1,INFIL_SCH_dy_1,INFIL_SCH_dy_1
Schedule:Week:Daily,WORK_EFF_SCH_wk_1,WORK_EFF_SCH_dy_1,WORK_EFF_SCH_dy_1,WORK_EFF_SCH_dy_1,WORK_EFF_SCH_dy_1,WORK_EFF_SCH_dy_1,WORK_EFF_SCH_dy_1,WORK_EFF_SCH_dy_1,WORK_EFF_SCH_dy_1,WORK_EFF_SCH_dy_1,WORK_EFF_SCH_dy_1,WORK_EFF_SCH_dy_1,WORK_EFF_SCH_dy_1
Schedule:Week:Daily,CLOTHING_SCH_wk_1,CLOTHING_SCH_dy_1,CLOTHING_SCH_dy_1,CLOTHING_SCH_dy_1,CLOTHING_SCH_dy_1,CLOTHING_SCH_dy_1,CLOTHING_SCH_dy_1,CLOTHING_SCH_dy_1,CLOTHING_SCH_dy_1,CLOTHING_SCH_dy_1,CLOTHING_SCH_dy_1,CLOTHING_SCH_dy_1,CLOTHING_SCH_dy_1
Schedule:Week:Daily,CLOTHING_SCH_wk_2,CLOTHING_SCH_dy_2,CLOTHING_SCH_dy_2,CLOTHING_SCH_dy_2,CLOTHING_SCH_dy_2,CLOTHING_SCH_dy_2,CLOTHING_SCH_dy_2,CLOTHING_SCH_dy_2,CLOTHING_SCH_dy_2,CLOTHING_SCH_dy_2,CLOTHING_SCH_dy_2,CLOTHING_SCH_dy_2,CLOTHING_SCH_dy_2
Schedule:Week:Daily,CLOTHING_SCH_wk_3,CLOTHING_SCH_dy_3,CLOTHING_SCH_dy_3,CLOTHING_SCH_dy_3,CLOTHING_SCH_dy_3,CLOTHING_SCH_dy_3,CLOTHING_SCH_dy_3,CLOTHING_SCH_dy_3,CLOTHING_SCH_dy_3,CLOTHING_SCH_dy_3,CLOTHING_SCH_dy_3,CLOTHING_SCH_dy_3,CLOTHING_SCH_dy_3
Schedule:Week:Daily,ACTIVITY_SCH_wk_1,ACTIVITY_SCH_dy_1,ACTIVITY_SCH_dy_1,ACTIVITY_SCH_dy_1,ACTIVITY_SCH_dy_1,ACTIVITY_SCH_dy_1,ACTIVITY_SCH_dy_1,ACTIVITY_SCH_dy_1,ACTIVITY_SCH_dy_1,ACTIVITY_SCH_dy_1,ACTIVITY_SCH_dy_1,ACTIVITY_SCH_dy_1,ACTIVITY_SCH_dy_1
Schedule:Week:Daily,AIR_VELO_SCH_wk_1,AIR_VELO_SCH_dy_1,AIR_VELO_SCH_dy_1,AIR_VELO_SCH_dy_1,AIR_VELO_SCH_dy_1,AIR_VELO_SCH_dy_1,AIR_VELO_SCH_dy_1,AIR_VELO_SCH_dy_1,AIR_VELO_SCH_dy_1,AIR_VELO_SCH_dy_1,AIR_VELO_SCH_dy_1,AIR_VELO_SCH_dy_1,AIR_VELO_SCH_dy_1
Schedule:Week:Daily,CLGSETP_SCH_wk_1,CLGSETP_SCH_dy_2,CLGSETP_SCH_dy_3,CLGSETP_SCH_dy_3,CLGSETP_SCH_dy_3,CLGSETP_SCH_dy_3,CLGSETP_SCH_dy_3,CLGSETP_SCH_dy_2,CLGSETP_SCH_dy_2,CLGSETP_SCH_dy_1,CLGSETP_SCH_dy_2,CLGSETP_SCH_dy_3,CLGSETP_SCH_dy_3
Schedule:Week:Daily,CLGSETP_SCH_wk_2,CLGSETP_SCH_dy_5,CLGSETP_SCH_dy_6,CLGSETP_SCH_dy_6,CLGSETP_SCH_dy_6,CLGSETP_SCH_dy_6,CLGSETP_SCH_dy_6,CLGSETP_SCH_dy_5,CLGSETP_SCH_dy_5,CLGSETP_SCH_dy_4,CLGSETP_SCH_dy_5,CLGSETP_SCH_dy_6,CLGSETP_SCH_dy_6
Schedule:Week:Daily,CLGSETP_SCH_wk_3,CLGSETP_SCH_dy_8,CLGSETP_SCH_dy_9,CLGSETP_SCH_dy_9,CLGSETP_SCH_dy_9,CLGSETP_SCH_dy_9,CLGSETP_SCH_dy_9,CLGSETP_SCH_dy_8,CLGSETP_SCH_dy_8,CLGSETP_SCH_dy_7,CLGSETP_SCH_dy_8,CLGSETP_SCH_dy_9,CLGSETP_SCH_dy_9
Schedule:Week:Daily,CLGSETP_SCH_BATHCORRMECHKITCHEN_wk_1,CLGSETP_SCH_BATHCORRMECHKITCHEN_dy_2,CLGSETP_SCH_BATHCORRMECHKITCHEN_dy_2,CLGSETP_SCH_BATHCORRMECHKITCHEN_dy_2,CLGSETP_SCH_BATHCORRMECHKITCHEN_dy_2,CLGSETP_SCH_BATHCORRMECHKITCHEN_dy_2,CLGSETP_SCH_BATHCORRMECHKITCHEN_dy_2,CLGSETP_SCH_BATHCORRMECHKITCHEN_dy_2,CLGSETP_SCH_BATHCORRMECHKITCHEN_dy_2,CLGSETP_SCH_BATHCORRMECHKITCHEN_dy_1,CLGSETP_SCH_BATHCORRMECHKITCHEN_dy_2,CLGSETP_SCH_BATHCORRMECHKITCHEN_dy_2,CLGSETP_SCH_BATHCORRMECHKITCHEN_dy_2
Schedule:Week:Daily,HTGSETP_SCH_wk_1,HTGSETP_SCH_dy_2,HTGSETP_SCH_dy_3,HTGSETP_SCH_dy_3,HTGSETP_SCH_dy_3,HTGSETP_SCH_dy_3,HTGSETP_SCH_dy_3,HTGSETP_SCH_dy_2,HTGSETP_SCH_dy_2,HTGSETP_SCH_dy_2,HTGSETP_SCH_dy_1,HTGSETP_SCH_dy_3,HTGSETP_SCH_dy_3
Schedule:Week:Daily,HTGSETP_SCH_wk_2,HTGSETP_SCH_dy_5,HTGSETP_SCH_dy_6,HTGSETP_SCH_dy_6,HTGSETP_SCH_dy_6,HTGSETP_SCH_dy_6,HTGSETP_SCH_dy_6,HTGSETP_SCH_dy_5,HTGSETP_SCH_dy_5,HTGSETP_SCH_dy_5,HTGSETP_SCH_dy_4,HTGSETP_SCH_dy_6,HTGSETP_SCH_dy_6
Schedule:Week:Daily,HTGSETP_SCH_wk_3,HTGSETP_SCH_dy_8,HTGSETP_SCH_dy_9,HTGSETP_SCH_dy_9,HTGSETP_SCH_dy_9,HTGSETP_SCH_dy_9,HTGSETP_SCH_dy_9,HTGSETP_SCH_dy_8,HTGSETP_SCH_dy_8,HTGSETP_SCH_dy_8,HTGSETP_SCH_dy_7,HTGSETP_SCH_dy_9,HTGSETP_SCH_dy_9
Schedule:Week:Daily,HTGSETP_SCH_BATHCORRMECHKITCHEN_wk_1,HTGSETP_SCH_BATHCORRMECHKITCHEN_dy_2,HTGSETP_SCH_BATHCORRMECHKITCHEN_dy_2,HTGSETP_SCH_BATHCORRMECHKITCHEN_dy_2,HTGSETP_SCH_BATHCORRMECHKITCHEN_dy_2,HTGSETP_SCH_BATHCORRMECHKITCHEN_dy_2,HTGSETP_SCH_BATHCORRMECHKITCHEN_dy_2,HTGSETP_SCH_BATHCORRMECHKITCHEN_dy_2,HTGSETP_SCH_BATHCORRMECHKITCHEN_dy_2,HTGSETP_SCH_BATHCORRMECHKITCHEN_dy_2,HTGSETP_SCH_BATHCORRMECHKITCHEN_dy_1,HTGSETP_SCH_BATHCORRMECHKITCHEN_dy_2,HTGSETP_SCH_BATHCORRMECHKITCHEN_dy_2
Schedule:Week:Daily,HVACOPERATIONSCHD_wk_1,HVACOPERATIONSCHD_dy_2,HVACOPERATIONSCHD_dy_1,HVACOPERATIONSCHD_dy_1,HVACOPERATIONSCHD_dy_1,HVACOPERATIONSCHD_dy_1,HVACOPERATIONSCHD_dy_1,HVACOPERATIONSCHD_dy_2,HVACOPERATIONSCHD_dy_2,HVACOPERATIONSCHD_dy_1,HVACOPERATIONSCHD_dy_2,HVACOPERATIONSCHD_dy_2,HVACOPERATIONSCHD_dy_2
Schedule:Week:Daily,MINOA_SCHED_wk_1,MINOA_SCHED_dy_2,MINOA_SCHED_dy_1,MINOA_SCHED_dy_1,MINOA_SCHED_dy_1,MINOA_SCHED_dy_1,MINOA_SCHED_dy_1,MINOA_SCHED_dy_2,MINOA_SCHED_dy_2,MINOA_SCHED_dy_1,MINOA_SCHED_dy_2,MINOA_SCHED_dy_2,MINOA_SCHED_dy_2
Schedule:Week:Daily,SEASONAL-RESET-SUPPLY-AIR-TEMP-SCH_wk_1,SEASONAL-RESET-SUPPLY-AIR-TEMP-SCH_dy_1,SEASONAL-RESET-SUPPLY-AIR-TEMP-SCH_dy_1,SEASONAL-RESET-SUPPLY-AIR-TEMP-SCH_dy_1,SEASONAL-RESET-SUPPLY-AIR-TEMP-SCH_dy_1,SEASONAL-RESET-SUPPLY-AIR-TEMP-SCH_dy_1,SEASONAL-RESET-SUPPLY-AIR-TEMP-SCH_dy_1,SEASONAL-RESET-SUPPLY-AIR-TEMP-SCH_dy_1,SEASONAL-RESET-SUPPLY-AIR-TEMP-SCH_dy_1,SEASONAL-RESET-SUPPLY-AIR-TEMP-SCH_dy_1,SEASONAL-RESET-SUPPLY-AIR-TEMP-SCH_dy_1,SEASONAL-RESET-SUPPLY-AIR-TEMP-SCH_dy_1,SEASONAL-RESET-SUPPLY-AIR-TEMP-SCH_dy_1
Schedule:Week:Daily,DUAL ZONE CONTROL TYPE SCHED_wk_1,DUAL ZONE CONTROL TYPE SCHED_dy_1,DUAL ZONE CONTROL TYPE SCHED_dy_1,DUAL ZONE CONTROL TYPE SCHED_dy_1,DUAL ZONE CONTROL TYPE SCHED_dy_1,DUAL ZONE CONTROL TYPE SCHED_dy_1,DUAL ZONE CONTROL TYPE SCHED_dy_1,DUAL ZONE CONTROL TYPE SCHED_dy_1,DUAL ZONE CONTROL TYPE SCHED_dy_1,DUAL ZONE CONTROL TYPE SCHED_dy_1,DUAL ZONE CONTROL TYPE SCHED_dy_1,DUAL ZONE CONTROL TYPE SCHED_dy_1,DUAL ZONE CONTROL TYPE SCHED_dy_1
Schedule:Week:Daily,HW-LOOP-TEMP-SCHEDULE_wk_1,HW-LOOP-TEMP-SCHEDULE_dy_1,HW-LOOP-TEMP-SCHEDULE_dy_1,HW-LOOP-TEMP-SCHEDULE_dy_1,HW-LOOP-TEMP-SCHEDULE_dy_1,HW-LOOP-TEMP-SCHEDULE_dy_1,HW-LOOP-TEMP-SCHEDULE_dy_1,HW-LOOP-TEMP-SCHEDULE_dy_1,HW-LOOP-TEMP-SCHEDULE_dy_1,HW-LOOP-TEMP-SCHEDULE_dy_1,HW-LOOP-TEMP-SCHEDULE_dy_1,HW-LOOP-TEMP-SCHEDULE_dy_1,HW-LOOP-TEMP-SCHEDULE_dy_1
Schedule:Week:Daily,PLANTONSCHED_wk_1,PLANTONSCHED_dy_1,PLANTONSCHED_dy_1,PLANTONSCHED_dy_1,PLANTONSCHED_dy_1,PLANTONSCHED_dy_1,PLANTONSCHED_dy_1,PLANTONSCHED_dy_1,PLANTONSCHED_dy_1,PLANTONSCHED_dy_1,PLANTONSCHED_dy_1,PLANTONSCHED_dy_1,PLANTONSCHED_dy_1
Schedule:Week:Daily,KITCHEN_ZN_1_FLR_1_CASE:1_WALKINFREEZER_CASECREDITREDUXSCHED_wk_1,KITCHEN_ZN_1_FLR_1_CASE:1_WALKINFREEZER_CASECREDITREDUXSCHED_dy_1,KITCHEN_ZN_1_FLR_1_CASE:1_WALKINFREEZER_CASECREDITREDUXSCHED_dy_1,KITCHEN_ZN_1_FLR_1_CASE:1_WALKINFREEZER_CASECREDITREDUXSCHED_dy_1,KITCHEN_ZN_1_FLR_1_CASE:1_WALKINFREEZER_CASECREDITREDUXSCHED_dy_1,KITCHEN_ZN_1_FLR_1_CASE:1_WALKINFREEZER_CASECREDITREDUXSCHED_dy_1,KITCHEN_ZN_1_FLR_1_CASE:1_WALKINFREEZER_CASECREDITREDUXSCHED_dy_1,KITCHEN_ZN_1_FLR_1_CASE:1_WALKINFREEZER_CASECREDITREDUXSCHED_dy_1,KITCHEN_ZN_1_FLR_1_CASE:1_WALKINFREEZER_CASECREDITREDUXSCHED_dy_1,KITCHEN_ZN_1_FLR_1_CASE:1_WALKINFREEZER_CASECREDITREDUXSCHED_dy_1,KITCHEN_ZN_1_FLR_1_CASE:1_WALKINFREEZER_CASECREDITREDUXSCHED_dy_1,KITCHEN_ZN_1_FLR_1_CASE:1_WALKINFREEZER_CASECREDITREDUXSCHED_dy_1,KITCHEN_ZN_1_FLR_1_CASE:1_WALKINFREEZER_CASECREDITREDUXSCHED_dy_1
Schedule:Week:Daily,KITCHEN_ZN_1_FLR_1_CASE:1_WALKINFREEZER_CASEDEFROST2ADAYSCHED_wk_1,KITCHEN_ZN_1_FLR_1_CASE:1_WALKINFREEZER_CASEDEFROST2ADAYSCHED_dy_1,KITCHEN_ZN_1_FLR_1_CASE:1_WALKINFREEZER_CASEDEFROST2ADAYSCHED_dy_1,KITCHEN_ZN_1_FLR_1_CASE:1_WALKINFREEZER_CASEDEFROST2ADAYSCHED_dy_1,KITCHEN_ZN_1_FLR_1_CASE:1_WALKINFREEZER_CASEDEFROST2ADAYSCHED_dy_1,KITCHEN_ZN_1_FLR_1_CASE:1_WALKINFREEZER_CASEDEFROST2ADAYSCHED_dy_1,KITCHEN_ZN_1_FLR_1_CASE:1_WALKINFREEZER_CASEDEFROST2ADAYSCHED_dy_1,KITCHEN_ZN_1_FLR_1_CASE:1_WALKINFREEZER_CASEDEFROST2ADAYSCHED_dy_1,KITCHEN_ZN_1_FLR_1_CASE:1_WALKINFREEZER_CASEDEFROST2ADAYSCHED_dy_1,KITCHEN_ZN_1_FLR_1_CASE:1_WALKINFREEZER_CASEDEFROST2ADAYSCHED_dy_1,KITCHEN_ZN_1_FLR_1_CASE:1_WALKINFREEZER_CASEDEFROST2ADAYSCHED_dy_1,KITCHEN_ZN_1_FLR_1_CASE:1_WALKINFREEZER_CASEDEFROST2ADAYSCHED_dy_1,KITCHEN_ZN_1_FLR_1_CASE:1_WALKINFREEZER_CASEDEFROST2ADAYSCHED_dy_1
Schedule:Week:Daily,KITCHEN_ZN_1_FLR_1_CASE:1_WALKINFREEZER_CASEDRIPDOWN2ADAYSCHED_wk_1,KITCHEN_ZN_1_FLR_1_CASE:1_WALKINFREEZER_CASEDRIPDOWN2ADAYSCHED_dy_1,KITCHEN_ZN_1_FLR_1_CASE:1_WALKINFREEZER_CASEDRIPDOWN2ADAYSCHED_dy_1,KITCHEN_ZN_1_FLR_1_CASE:1_WALKINFREEZER_CASEDRIPDOWN2ADAYSCHED_dy_1,KITCHEN_ZN_1_FLR_1_CASE:1_WALKINFREEZER_CASEDRIPDOWN2ADAYSCHED_dy_1,KITCHEN_ZN_1_FLR_1_CASE:1_WALKINFREEZER_CASEDRIPDOWN2ADAYSCHED_dy_1,KITCHEN_ZN_1_FLR_1_CASE:1_WALKINFREEZER_CASEDRIPDOWN2ADAYSCHED_dy_1,KITCHEN_ZN_1_FLR_1_CASE:1_WALKINFREEZER_CASEDRIPDOWN2ADAYSCHED_dy_1,KITCHEN_ZN_1_FLR_1_CASE:1_WALKINFREEZER_CASEDRIPDOWN2ADAYSCHED_dy_1,KITCHEN_ZN_1_FLR_1_CASE:1_WALKINFREEZER_CASEDRIPDOWN2ADAYSCHED_dy_1,KITCHEN_ZN_1_FLR_1_CASE:1_WALKINFREEZER_CASEDRIPDOWN2ADAYSCHED_dy_1,KITCHEN_ZN_1_FLR_1_CASE:1_WALKINFREEZER_CASEDRIPDOWN2ADAYSCHED_dy_1,KITCHEN_ZN_1_FLR_1_CASE:1_WALKINFREEZER_CASEDRIPDOWN2ADAYSCHED_dy_1
Schedule:Week:Daily,KITCHEN_ZN_1_FLR_1_CASE:1_WALKINFREEZER_WALKINSTOCKINGSCHED_wk_1,KITCHEN_ZN_1_FLR_1_CASE:1_WALKINFREEZER_WALKINSTOCKINGSCHED_dy_2,KITCHEN_ZN_1_FLR_1_CASE:1_WALKINFREEZER_WALKINSTOCKINGSCHED_dy_2,KITCHEN_ZN_1_FLR_1_CASE:1_WALKINFREEZER_WALKINSTOCKINGSCHED_dy_1,KITCHEN_ZN_1_FLR_1_CASE:1_WALKINFREEZER_WALKINSTOCKINGSCHED_dy_2,KITCHEN_ZN_1_FLR_1_CASE:1_WALKINFREEZER_WALKINSTOCKINGSCHED_dy_2,KITCHEN_ZN_1_FLR_1_CASE:1_WALKINFREEZER_WALKINSTOCKINGSCHED_dy_1,KITCHEN_ZN_1_FLR_1_CASE:1_WALKINFREEZER_WALKINSTOCKINGSCHED_dy_2,KITCHEN_ZN_1_FLR_1_CASE:1_WALKINFREEZER_WALKINSTOCKINGSCHED_dy_2,KITCHEN_ZN_1_FLR_1_CASE:1_WALKINFREEZER_WALKINSTOCKINGSCHED_dy_2,KITCHEN_ZN_1_FLR_1_CASE:1_WALKINFREEZER_WALKINSTOCKINGSCHED_dy_2,KITCHEN_ZN_1_FLR_1_CASE:1_WALKINFREEZER_WALKINSTOCKINGSCHED_dy_2,KITCHEN_ZN_1_FLR_1_CASE:1_WALKINFREEZER_WALKINSTOCKINGSCHED_dy_2
Schedule:Week:Daily,KITCHEN_ZN_1_FLR_1_CASE:2_SELFCONTAINEDDISPLAYCASE_CASESTOCKINGSCHED_wk_1,KITCHEN_ZN_1_FLR_1_CASE:2_SELFCONTAINEDDISPLAYCASE_CASESTOCKINGSCHED_dy_1,KITCHEN_ZN_1_FLR_1_CASE:2_SELFCONTAINEDDISPLAYCASE_CASESTOCKINGSCHED_dy_1,KITCHEN_ZN_1_FLR_1_CASE:2_SELFCONTAINEDDISPLAYCASE_CASESTOCKINGSCHED_dy_1,KITCHEN_ZN_1_FLR_1_CASE:2_SELFCONTAINEDDISPLAYCASE_CASESTOCKINGSCHED_dy_1,KITCHEN_ZN_1_FLR_1_CASE:2_SELFCONTAINEDDISPLAYCASE_CASESTOCKINGSCHED_dy_1,KITCHEN_ZN_1_FLR_1_CASE:2_SELFCONTAINEDDISPLAYCASE_CASESTOCKINGSCHED_dy_1,KITCHEN_ZN_1_FLR_1_CASE:2_SELFCONTAINEDDISPLAYCASE_CASESTOCKINGSCHED_dy_1,KITCHEN_ZN_1_FLR_1_CASE:2_SELFCONTAINEDDISPLAYCASE_CASESTOCKINGSCHED_dy_1,KITCHEN_ZN_1_FLR_1_CASE:2_SELFCONTAINEDDISPLAYCASE_CASESTOCKINGSCHED_dy_1,KITCHEN_ZN_1_FLR_1_CASE:2_SELFCONTAINEDDISPLAYCASE_CASESTOCKINGSCHED_dy_1,KITCHEN_ZN_1_FLR_1_CASE:2_SELFCONTAINEDDISPLAYCASE_CASESTOCKINGSCHED_dy_1,KITCHEN_ZN_1_FLR_1_CASE:2_SELFCONTAINEDDISPLAYCASE_CASESTOCKINGSCHED_dy_1
Schedule:Week:Daily,BLDG_SWH_SCH_wk_1,BLDG_SWH_SCH_dy_3,BLDG_SWH_SCH_dy_1,BLDG_SWH_SCH_dy_1,BLDG_SWH_SCH_dy_1,BLDG_SWH_SCH_dy_1,BLDG_SWH_SCH_dy_1,BLDG_SWH_SCH_dy_2,BLDG_SWH_SCH_dy_3,BLDG_SWH_SCH_dy_1,BLDG_SWH_SCH_dy_2,BLDG_SWH_SCH_dy_3,BLDG_SWH_SCH_dy_3
Schedule:Week:Daily,BLDG_SWH_SCH_wk_2,BLDG_SWH_SCH_dy_6,BLDG_SWH_SCH_dy_4,BLDG_SWH_SCH_dy_4,BLDG_SWH_SCH_dy_4,BLDG_SWH_SCH_dy_4,BLDG_SWH_SCH_dy_4,BLDG_SWH_SCH_dy_5,BLDG_SWH_SCH_dy_6,BLDG_SWH_SCH_dy_4,BLDG_SWH_SCH_dy_5,BLDG_SWH_SCH_dy_6,BLDG_SWH_SCH_dy_6
Schedule:Week:Daily,BLDG_SWH_SCH_wk_3,BLDG_SWH_SCH_dy_9,BLDG_SWH_SCH_dy_7,BLDG_SWH_SCH_dy_7,BLDG_SWH_SCH_dy_7,BLDG_SWH_SCH_dy_7,BLDG_SWH_SCH_dy_7,BLDG_SWH_SCH_dy_8,BLDG_SWH_SCH_dy_9,BLDG_SWH_SCH_dy_7,BLDG_SWH_SCH_dy_8,BLDG_SWH_SCH_dy_9,BLDG_SWH_SCH_dy_9
Schedule:Week:Daily,SHW_DEFAULT LATENT FRACT SCHED_wk_1,SHW_DEFAULT LATENT FRACT SCHED_dy_1,SHW_DEFAULT LATENT FRACT SCHED_dy_1,SHW_DEFAULT LATENT FRACT SCHED_dy_1,SHW_DEFAULT LATENT FRACT SCHED_dy_1,SHW_DEFAULT LATENT FRACT SCHED_dy_1,SHW_DEFAULT LATENT FRACT SCHED_dy_1,SHW_DEFAULT LATENT FRACT SCHED_dy_1,SHW_DEFAULT LATENT FRACT SCHED_dy_1,SHW_DEFAULT LATENT FRACT SCHED_dy_1,SHW_DEFAULT LATENT FRACT SCHED_dy_1,SHW_DEFAULT LATENT FRACT SCHED_dy_1,SHW_DEFAULT LATENT FRACT SCHED_dy_1
Schedule:Week:Daily,SHW_DEFAULT SENSIBLE FRACT SCHED_wk_1,SHW_DEFAULT SENSIBLE FRACT SCHED_dy_1,SHW_DEFAULT SENSIBLE FRACT SCHED_dy_1,SHW_DEFAULT SENSIBLE FRACT SCHED_dy_1,SHW_DEFAULT SENSIBLE FRACT SCHED_dy_1,SHW_DEFAULT SENSIBLE FRACT SCHED_dy_1,SHW_DEFAULT SENSIBLE FRACT SCHED_dy_1,SHW_DEFAULT SENSIBLE FRACT SCHED_dy_1,SHW_DEFAULT SENSIBLE FRACT SCHED_dy_1,SHW_DEFAULT SENSIBLE FRACT SCHED_dy_1,SHW_DEFAULT SENSIBLE FRACT SCHED_dy_1,SHW_DEFAULT SENSIBLE FRACT SCHED_dy_1,SHW_DEFAULT SENSIBLE FRACT SCHED_dy_1
Schedule:Week:Daily,SHW_BATH HOT SUPPLY TEMP SCHED_wk_1,SHW_BATH HOT SUPPLY TEMP SCHED_dy_1,SHW_BATH HOT SUPPLY TEMP SCHED_dy_1,SHW_BATH HOT SUPPLY TEMP SCHED_dy_1,SHW_BATH HOT SUPPLY TEMP SCHED_dy_1,SHW_BATH HOT SUPPLY TEMP SCHED_dy_1,SHW_BATH HOT SUPPLY TEMP SCHED_dy_1,SHW_BATH HOT SUPPLY TEMP SCHED_dy_1,SHW_BATH HOT SUPPLY TEMP SCHED_dy_1,SHW_BATH HOT SUPPLY TEMP SCHED_dy_1,SHW_BATH HOT SUPPLY TEMP SCHED_dy_1,SHW_BATH HOT SUPPLY TEMP SCHED_dy_1,SHW_BATH HOT SUPPLY TEMP SCHED_dy_1
Schedule:Week:Daily,SHW_BATH TEMP SCHED_wk_1,SHW_BATH TEMP SCHED_dy_1,SHW_BATH TEMP SCHED_dy_1,SHW_BATH TEMP SCHED_dy_1,SHW_BATH TEMP SCHED_dy_1,SHW_BATH TEMP SCHED_dy_1,SHW_BATH TEMP SCHED_dy_1,SHW_BATH TEMP SCHED_dy_1,SHW_BATH TEMP SCHED_dy_1,SHW_BATH TEMP SCHED_dy_1,SHW_BATH TEMP SCHED_dy_1,SHW_BATH TEMP SCHED_dy_1,SHW_BATH TEMP SCHED_dy_1
Schedule:Week:Daily,SHW_KITCHEN HOT SUPPLY TEMP SCHED_wk_1,SHW_KITCHEN HOT SUPPLY TEMP SCHED_dy_1,SHW_KITCHEN HOT SUPPLY TEMP SCHED_dy_1,SHW_KITCHEN HOT SUPPLY TEMP SCHED_dy_1,SHW_KITCHEN HOT SUPPLY TEMP SCHED_dy_1,SHW_KITCHEN HOT SUPPLY TEMP SCHED_dy_1,SHW_KITCHEN HOT SUPPLY TEMP SCHED_dy_1,SHW_KITCHEN HOT SUPPLY TEMP SCHED_dy_1,SHW_KITCHEN HOT SUPPLY TEMP SCHED_dy_1,SHW_KITCHEN HOT SUPPLY TEMP SCHED_dy_1,SHW_KITCHEN HOT SUPPLY TEMP SCHED_dy_1,SHW_KITCHEN HOT SUPPLY TEMP SCHED_dy_1,SHW_KITCHEN HOT SUPPLY TEMP SCHED_dy_1
Schedule:Week:Daily,SHW_KITCHEN TEMP SCHED_wk_1,SHW_KITCHEN TEMP SCHED_dy_1,SHW_KITCHEN TEMP SCHED_dy_1,SHW_KITCHEN TEMP SCHED_dy_1,SHW_KITCHEN TEMP SCHED_dy_1,SHW_KITCHEN TEMP SCHED_dy_1,SHW_KITCHEN TEMP SCHED_dy_1,SHW_KITCHEN TEMP SCHED_dy_1,SHW_KITCHEN TEMP SCHED_dy_1,SHW_KITCHEN TEMP SCHED_dy_1,SHW_KITCHEN TEMP SCHED_dy_1,SHW_KITCHEN TEMP SCHED_dy_1,SHW_KITCHEN TEMP SCHED_dy_1
Schedule:Week:Daily,SWHSYS1 WATER HEATER AMBIENT TEMPERATURE SCHEDULE NAME_wk_1,SWHSYS1 WATER HEATER AMBIENT TEMPERATURE SCHEDULE NAME_dy_1,SWHSYS1 WATER HEATER AMBIENT TEMPERATURE SCHEDULE NAME_dy_1,SWHSYS1 WATER HEATER AMBIENT TEMPERATURE SCHEDULE NAME_dy_1,SWHSYS1 WATER HEATER AMBIENT TEMPERATURE SCHEDULE NAME_dy_1,SWHSYS1 WATER HEATER AMBIENT TEMPERATURE SCHEDULE NAME_dy_1,SWHSYS1 WATER HEATER AMBIENT TEMPERATURE SCHEDULE NAME_dy_1,SWHSYS1 WATER HEATER AMBIENT TEMPERATURE SCHEDULE NAME_dy_1,SWHSYS1 WATER HEATER AMBIENT TEMPERATURE SCHEDULE NAME_dy_1,SWHSYS1 WATER HEATER AMBIENT TEMPERATURE SCHEDULE NAME_dy_1,SWHSYS1 WATER HEATER AMBIENT TEMPERATURE SCHEDULE NAME_dy_1,SWHSYS1 WATER HEATER AMBIENT TEMPERATURE SCHEDULE NAME_dy_1,SWHSYS1 WATER HEATER AMBIENT TEMPERATURE SCHEDULE NAME_dy_1
Schedule:Week:Daily,SWHSYS1 WATER HEATER SETPOINT TEMPERATURE SCHEDULE NAME_wk_1,SWHSYS1 WATER HEATER SETPOINT TEMPERATURE SCHEDULE NAME_dy_1,SWHSYS1 WATER HEATER SETPOINT TEMPERATURE SCHEDULE NAME_dy_1,SWHSYS1 WATER HEATER SETPOINT TEMPERATURE SCHEDULE NAME_dy_1,SWHSYS1 WATER HEATER SETPOINT TEMPERATURE SCHEDULE NAME_dy_1,SWHSYS1 WATER HEATER SETPOINT TEMPERATURE SCHEDULE NAME_dy_1,SWHSYS1 WATER HEATER SETPOINT TEMPERATURE SCHEDULE NAME_dy_1,SWHSYS1 WATER HEATER SETPOINT TEMPERATURE SCHEDULE NAME_dy_1,SWHSYS1 WATER HEATER SETPOINT TEMPERATURE SCHEDULE NAME_dy_1,SWHSYS1 WATER HEATER SETPOINT TEMPERATURE SCHEDULE NAME_dy_1,SWHSYS1 WATER HEATER SETPOINT TEMPERATURE SCHEDULE NAME_dy_1,SWHSYS1 WATER HEATER SETPOINT TEMPERATURE SCHEDULE NAME_dy_1,SWHSYS1 WATER HEATER SETPOINT TEMPERATURE SCHEDULE NAME_dy_1
Schedule:Week:Daily,SWHSYS1-LOOP-TEMP-SCHEDULE_wk_1,SWHSYS1-LOOP-TEMP-SCHEDULE_dy_1,SWHSYS1-LOOP-TEMP-SCHEDULE_dy_1,SWHSYS1-LOOP-TEMP-SCHEDULE_dy_1,SWHSYS1-LOOP-TEMP-SCHEDULE_dy_1,SWHSYS1-LOOP-TEMP-SCHEDULE_dy_1,SWHSYS1-LOOP-TEMP-SCHEDULE_dy_1,SWHSYS1-LOOP-TEMP-SCHEDULE_dy_1,SWHSYS1-LOOP-TEMP-SCHEDULE_dy_1,SWHSYS1-LOOP-TEMP-SCHEDULE_dy_1,SWHSYS1-LOOP-TEMP-SCHEDULE_dy_1,SWHSYS1-LOOP-TEMP-SCHEDULE_dy_1,SWHSYS1-LOOP-TEMP-SCHEDULE_dy_1
Schedule,ALWAYS_ON,ON/OFF,Through Dec 31,ALWAYS_ON_wk_1
Schedule,BLDG_EQUIP_SCH,FRACTION,Through Jun 30,BLDG_EQUIP_SCH_wk_1,Through Sep 01,BLDG_EQUIP_SCH_wk_2,Through Dec 31,BLDG_EQUIP_SCH_wk_3
Schedule,BLDG_LIGHT_SCH,FRACTION,Through Jun 30,BLDG_LIGHT_SCH_wk_1,Through Sep 01,BLDG_LIGHT_SCH_wk_2,Through Dec 31,BLDG_LIGHT_SCH_wk_3
Schedule,BLDG_OCC_SCH,FRACTION,Through Jun 30,BLDG_OCC_SCH_wk_1,Through Sep 01,BLDG_OCC_SCH_wk_2,Through Dec 31,BLDG_OCC_SCH_wk_3
Schedule,BLDG_OCC_SCH_CAFETERIA,FRACTION,Through Jun 30,BLDG_OCC_SCH_CAFETERIA_wk_1,Through Sep 01,BLDG_OCC_SCH_CAFETERIA_wk_2,Through Dec 31,BLDG_OCC_SCH_CAFETERIA_wk_3
Schedule,BLDG_OCC_SCH_GYM,FRACTION,Through Jun 30,BLDG_OCC_SCH_GYM_wk_1,Through Sep 01,BLDG_OCC_SCH_GYM_wk_2,Through Dec 31,BLDG_OCC_SCH_GYM_wk_3
Schedule,BLDG_OCC_SCH_OFFICES,FRACTION,Through Jun 30,BLDG_OCC_SCH_OFFICES_wk_1,Through Sep 01,BLDG_OCC_SCH_OFFICES_wk_2,Through Dec 31,BLDG_OCC_SCH_OFFICES_wk_3
Schedule,KITCHEN_ELEC_EQUIP_SCH,FRACTION,Through Jun 30,KITCHEN_ELEC_EQUIP_SCH_wk_1,Through Sep 01,KITCHEN_ELEC_EQUIP_SCH_wk_2,Through Dec 31,KITCHEN_ELEC_EQUIP_SCH_wk_3
Schedule,KITCHEN_GAS_EQUIP_SCH,FRACTION,Through Jun 30,KITCHEN_GAS_EQUIP_SCH_wk_1,Through Sep 01,KITCHEN_GAS_EQUIP_SCH_wk_2,Through Dec 31,KITCHEN_GAS_EQUIP_SCH_wk_3
Schedule,KITCHEN_EXHAUST_SCH,FRACTION,Through Dec 31,KITCHEN_EXHAUST_SCH_wk_1
Schedule,INFIL_SCH,FRACTION,Through Dec 31,INFIL_SCH_wk_1
Schedule,WORK_EFF_SCH,FRACTION,Through Dec 31,WORK_EFF_SCH_wk_1
Schedule,CLOTHING_SCH,ANY NUMBER,Through Apr 30,CLOTHING_SCH_wk_1,Through Sep 30,CLOTHING_SCH_wk_2,Through Dec 31,CLOTHING_SCH_wk_3
Schedule,ACTIVITY_SCH,ANY NUMBER,Through Dec 31,ACTIVITY_SCH_wk_1
Schedule,AIR_VELO_SCH,ANY NUMBER,Through Dec 31,AIR_VELO_SCH_wk_1
Schedule,CLGSETP_SCH,TEMPERATURE,Through Jun 30,CLGSETP_SCH_wk_1,Through Sep 01,CLGSETP_SCH_wk_2,Through Dec 31,CLGSETP_SCH_wk_3
Schedule,CLGSETP_SCH_BATHCORRMECHKITCHEN,TEMPERATURE,Through Dec 31,CLGSETP_SCH_BATHCORRMECHKITCHEN_wk_1
Schedule,HTGSETP_SCH,TEMPERATURE,Through Jun 30,HTGSETP_SCH_wk_1,Through Sep 01,HTGSETP_SCH_wk_2,Through Dec 31,HTGSETP_SCH_wk_3
Schedule,HTGSETP_SCH_BATHCORRMECHKITCHEN,TEMPERATURE,Through Dec 31,HTGSETP_SCH_BATHCORRMECHKITCHEN_wk_1
Schedule,HVACOPERATIONSCHD,ON/OFF,Through Dec 31,HVACOPERATIONSCHD_wk_1
Schedule,MINOA_SCHED,ON/OFF,Through Dec 31,MINOA_SCHED_wk_1
Schedule,SEASONAL-RESET-SUPPLY-AIR-TEMP-SCH,TEMPERATURE,Through Dec 31,SEASONAL-RESET-SUPPLY-AIR-TEMP-SCH_wk_1
Schedule,DUAL ZONE CONTROL TYPE SCHED,CONTROL TYPE,Through Dec 31,DUAL ZONE CONTROL TYPE SCHED_wk_1
Schedule,HW-LOOP-TEMP-SCHEDULE,TEMPERATURE,Through Dec 31,HW-LOOP-TEMP-SCHEDULE_wk_1
Schedule,PLANTONSCHED,ANY NUMBER,Through Dec 31,PLANTONSCHED_wk_1
Schedule,KITCHEN_ZN_1_FLR_1_CASE:1_WALKINFREEZER_CASECREDITREDUXSCHED,FRACTION,Through Dec 31,KITCHEN_ZN_1_FLR_1_CASE:1_WALKINFREEZER_CASECREDITREDUXSCHED_wk_1
Schedule,KITCHEN_ZN_1_FLR_1_CASE:1_WALKINFREEZER_CASEDEFROST2ADAYSCHED,ON/OFF,Through Dec 31,KITCHEN_ZN_1_FLR_1_CASE:1_WALKINFREEZER_CASEDEFROST2ADAYSCHED_wk_1
Schedule,KITCHEN_ZN_1_FLR_1_CASE:1_WALKINFREEZER_CASEDRIPDOWN2ADAYSCHED,ON/OFF,Through Dec 31,KITCHEN_ZN_1_FLR_1_CASE:1_WALKINFREEZER_CASEDRIPDOWN2ADAYSCHED_wk_1
Schedule,KITCHEN_ZN_1_FLR_1_CASE:1_WALKINFREEZER_WALKINSTOCKINGSCHED,ANY NUMBER,Through Dec 31,KITCHEN_ZN_1_FLR_1_CASE:1_WALKINFREEZER_WALKINSTOCKINGSCHED_wk_1
Schedule,KITCHEN_ZN_1_FLR_1_CASE:2_SELFCONTAINEDDISPLAYCASE_CASESTOCKINGSCHED,ANY NUMBER,Through Dec 31,KITCHEN_ZN_1_FLR_1_CASE:2_SELFCONTAINEDDISPLAYCASE_CASESTOCKINGSCHED_wk_1
Schedule,BLDG_SWH_SCH,FRACTION,Through Jun 30,BLDG_SWH_SCH_wk_1,Through Sep 01,BLDG_SWH_SCH_wk_2,Through Dec 31,BLDG_SWH_SCH_wk_3
Schedule,SHW_DEFAULT LATENT FRACT SCHED,FRACTION,Through Dec 31,SHW_DEFAULT LATENT FRACT SCHED_wk_1
Schedule,SHW_DEFAULT SENSIBLE FRACT SCHED,FRACTION,Through Dec 31,SHW_DEFAULT SENSIBLE FRACT SCHED_wk_1
Schedule,SHW_BATH HOT SUPPLY TEMP SCHED,TEMPERATURE,Through Dec 31,SHW_BATH HOT SUPPLY TEMP SCHED_wk_1
Schedule,SHW_BATH TEMP SCHED,TEMPERATURE,Through Dec 31,SHW_BATH TEMP SCHED_wk_1
Schedule,SHW_KITCHEN HOT SUPPLY TEMP SCHED,TEMPERATURE,Through Dec 31,SHW_KITCHEN HOT SUPPLY TEMP SCHED_wk_1
Schedule,SHW_KITCHEN TEMP SCHED,TEMPERATURE,Through Dec 31,SHW_KITCHEN TEMP SCHED_wk_1
Schedule,SWHSYS1 WATER HEATER AMBIENT TEMPERATURE SCHEDULE NAME,TEMPERATURE,Through Dec 31,SWHSYS1 WATER HEATER AMBIENT TEMPERATURE SCHEDULE NAME_wk_1
Schedule,SWHSYS1 WATER HEATER SETPOINT TEMPERATURE SCHEDULE NAME,TEMPERATURE,Through Dec 31,SWHSYS1 WATER HEATER SETPOINT TEMPERATURE SCHEDULE NAME_wk_1
Schedule,SWHSYS1-LOOP-TEMP-SCHEDULE,TEMPERATURE,Through Dec 31,SWHSYS1-LOOP-TEMP-SCHEDULE_wk_1
! <Building Information>, Building Name,North Axis {deg},Terrain,  Loads Convergence Tolerance Value,Temperature Convergence Tolerance Value,  Solar Distribution,Maximum Number of Warmup Days,Minimum Number of Warmup Days
 Building Information,Ref Bldg Primary School Pre1980_v1.3_5.0,0.000,City,4.00000E-002,0.20000,FullInteriorAndExterior,25,6
! <Inside Convection Algorithm>, Algorithm {Simple | TARP | CeilingDiffuser | AdaptiveConvectionAlgorithm}
Inside Convection Algorithm,TARP
! <Outside Convection Algorithm>, Algorithm {SimpleCombined | TARP | MoWitt | DOE-2 | AdaptiveConvectionAlgorithm}
Outside Convection Algorithm,DOE-2
! <Sky Radiance Distribution>, Value {Anisotropic}
Sky Radiance Distribution,Anisotropic
! <Zone Air Solution Algorithm>, Value {ThirdOrderBackwardDifference | AnalyticalSolution | EulerMethod}
 Zone Air Solution Algorithm, AnalyticalSolution
! <Zone Air Carbon Dioxide Balance Simulation>, Simulation {Yes/No}, Carbon Dioxide Concentration
 Zone Air Carbon Dioxide Balance Simulation, No,N/A
! <Zone Air Generic Contaminant Balance Simulation>, Simulation {Yes/No}, Generic Contaminant Concentration
 Zone Air Generic Contaminant Balance Simulation, No,N/A
! <Zone Air Mass Flow Balance Simulation>, Enforce Mass Balance, Adjust Zone Mixing, Adjust Zone Infiltration {AddInfiltration | AdjustInfiltration | None}, Infiltration Zones {MixingSourceZonesOnly | AllZones}
 Zone Air Mass Flow Balance Simulation, No,N/A,N/A,N/A
! <HVACSystemRootFindingAlgorithm>, Value {RegulaFalsi | Bisection | BisectionThenRegulaFalsi | RegulaFalsiThenBisection}
 HVACSystemRootFindingAlgorithm, RegulaFalsi
! <Environment:Site Atmospheric Variation>,Wind Speed Profile Exponent {},Wind Speed Profile Boundary Layer Thickness {m},Air Temperature Gradient Coefficient {K/m}
Environment:Site Atmospheric Variation,0.330,460.000,6.500000E-003
! <Surface Geometry>,Starting Corner,Vertex Input Direction,Coordinate System,Daylight Reference Point Coordinate System,Rectangular (Simple) Surface Coordinate System
 Surface Geometry,UpperLeftCorner,Counterclockwise,RelativeCoordinateSystem,RelativeCoordinateSystem,RelativeToZoneOrigin
! <Surface Heat Transfer Algorithm>, Value {CTF - ConductionTransferFunction | EMPD - MoisturePenetrationDepthConductionTransferFunction | CondFD - ConductionFiniteDifference | HAMT - CombinedHeatAndMoistureFiniteElement} - Description,Inside Surface Max Temperature Limit{C}, Surface Convection Coefficient Lower Limit {W/m2-K}, Surface Convection Coefficient Upper Limit {W/m2-K}
Surface Heat Transfer Algorithm, CTF - ConductionTransferFunction,200,0.10,1000.0
! <Shading Summary>, Number of Fixed Detached Shades, Number of Building Detached Shades, Number of Attached Shades
 Shading Summary,0,0,0
! <Zone Summary>, Number of Zones, Number of Zone Surfaces, Number of SubSurfaces
 Zone Summary,25,229,33
! <Zone Information>,Zone Name,North Axis {deg},Origin X-Coordinate {m},Origin Y-Coordinate {m},Origin Z-Coordinate {m},Centroid X-Coordinate {m},Centroid Y-Coordinate {m},Centroid Z-Coordinate {m},Type,Zone Multiplier,Zone List Multiplier,Minimum X {m},Maximum X {m},Minimum Y {m},Maximum Y {m},Minimum Z {m},Maximum Z {m},Ceiling Height {m},Volume {m3},Zone Inside Convection Algorithm {Simple-Detailed-CeilingDiffuser-TrombeWall},Zone Outside Convection Algorithm {Simple-Detailed-Tarp-MoWitt-DOE-2-BLAST}, Floor Area {m2},Exterior Gross Wall Area {m2},Exterior Net Wall Area {m2},Exterior Window Area {m2}, Number of Surfaces, Number of SubSurfaces, Number of Shading SubSurfaces,  Part of Total Building Area
 Zone Information, BATH_ZN_1_FLR_1,0.0,0.00,51.00,0.00,9.50,56.00,2.00,1,1,1,0.00,19.00,51.00,61.00,0.00,4.00,4.00,760.00,TARP,DOE-2,190.00,40.00,26.00,14.00,7,1,0,Yes
 Zone Information, CAFETERIA_ZN_1_FLR_1,0.0,19.00,46.00,0.00,29.50,53.50,2.00,1,1,1,19.00,40.00,46.00,61.00,0.00,4.00,4.00,1260.00,TARP,DOE-2,315.00,144.00,93.60,50.40,7,2,0,Yes
 Zone Information, COMPUTER_CLASS_ZN_1_FLR_1,0.0,-18.00,73.00,0.00,-9.00,77.50,2.00,1,1,1,-18.00,0.00,73.00,82.00,0.00,4.00,4.00,648.00,TARP,DOE-2,162.00,72.00,46.80,25.20,6,1,0,Yes
 Zone Information, CORNER_CLASS_1_POD_1_ZN_1_FLR_1,0.0,-64.00,0.00,0.00,-58.50,4.50,2.00,1,1,1,-64.00,-53.00,0.00,9.00,0.00,4.00,4.00,396.00,TARP,DOE-2,99.00,80.00,52.00,28.00,6,2,0,Yes
 Zone Information, CORNER_CLASS_1_POD_2_ZN_1_FLR_1,0.0,-64.00,30.00,0.00,-58.50,34.50,2.00,1,1,1,-64.00,-53.00,30.00,39.00,0.00,4.00,4.00,396.00,TARP,DOE-2,99.00,80.00,52.00,28.00,6,2,0,Yes
 Zone Information, CORNER_CLASS_1_POD_3_ZN_1_FLR_1,0.0,-64.00,61.00,0.00,-58.50,65.50,2.00,1,1,1,-64.00,-53.00,61.00,70.00,0.00,4.00,4.00,396.00,TARP,DOE-2,99.00,80.00,52.00,28.00,6,2,0,Yes
 Zone Information, CORNER_CLASS_2_POD_1_ZN_1_FLR_1,0.0,-64.00,12.00,0.00,-58.50,16.50,2.00,1,1,1,-64.00,-53.00,12.00,21.00,0.00,4.00,4.00,396.00,TARP,DOE-2,99.00,80.00,52.00,28.00,6,2,0,Yes
 Zone Information, CORNER_CLASS_2_POD_2_ZN_1_FLR_1,0.0,-64.00,42.00,0.00,-58.50,46.50,2.00,1,1,1,-64.00,-53.00,42.00,51.00,0.00,4.00,4.00,396.00,TARP,DOE-2,99.00,80.00,52.00,28.00,6,2,0,Yes
 Zone Information, CORNER_CLASS_2_POD_3_ZN_1_FLR_1,0.0,-64.00,73.00,0.00,-58.50,77.50,2.00,1,1,1,-64.00,-53.00,73.00,82.00,0.00,4.00,4.00,396.00,TARP,DOE-2,99.00,80.00,52.00,28.00,6,2,0,Yes
 Zone Information, CORRIDOR_POD_1_ZN_1_FLR_1,0.0,-64.00,9.00,0.00,-32.00,10.50,2.00,1,1,1,-64.00,0.00,9.00,12.00,0.00,4.00,4.00,768.00,TARP,DOE-2,192.00,12.00,7.80,4.20,8,1,0,Yes
 Zone Information, CORRIDOR_POD_2_ZN_1_FLR_1,0.0,-64.00,39.00,0.00,-32.00,40.50,2.00,1,1,1,-64.00,0.00,39.00,42.00,0.00,4.00,4.00,768.00,TARP,DOE-2,192.00,12.00,7.80,4.20,8,1,0,Yes
 Zone Information, CORRIDOR_POD_3_ZN_1_FLR_1,0.0,-64.00,70.00,0.00,-32.00,71.50,2.00,1,1,1,-64.00,0.00,70.00,73.00,0.00,4.00,4.00,768.00,TARP,DOE-2,192.00,12.00,7.80,4.20,9,1,0,Yes
 Zone Information, GYM_ZN_1_FLR_1,0.0,19.00,21.00,0.00,29.50,29.50,2.00,1,1,1,19.00,40.00,21.00,38.00,0.00,4.00,4.00,1428.00,TARP,DOE-2,357.00,68.00,44.20,23.80,6,1,0,Yes
 Zone Information, KITCHEN_ZN_1_FLR_1,0.0,19.00,38.00,0.00,29.50,42.00,2.00,1,1,1,19.00,40.00,38.00,46.00,0.00,4.00,4.00,672.00,TARP,DOE-2,168.00,32.00,20.80,11.20,6,1,0,Yes
 Zone Information, LIBRARY_MEDIA_CENTER_ZN_1_FLR_1,0.0,0.00,61.00,0.00,9.50,71.50,2.00,1,1,1,0.00,19.00,61.00,82.00,0.00,4.00,4.00,1596.00,TARP,DOE-2,399.00,160.00,104.00,56.00,8,2,0,Yes
 Zone Information, LOBBY_ZN_1_FLR_1,0.0,0.00,0.00,0.00,9.50,4.50,2.00,1,1,1,0.00,19.00,0.00,9.00,0.00,4.00,4.00,684.00,TARP,DOE-2,171.00,76.00,49.40,26.60,7,1,0,Yes
 Zone Information, MAIN_CORRIDOR_ZN_1_FLR_1,0.0,0.00,9.00,0.00,6.50,30.00,2.00,1,1,1,0.00,13.00,9.00,51.00,0.00,4.00,4.00,2184.00,TARP,DOE-2,546.00,36.00,23.40,12.60,11,1,0,Yes
 Zone Information, MECH_ZN_1_FLR_1,0.0,13.00,9.00,0.00,16.00,30.00,2.00,1,1,1,13.00,19.00,9.00,51.00,0.00,4.00,4.00,1008.00,TARP,DOE-2,252.00,0.00,0.00,0.00,9,0,0,Yes
 Zone Information, MULT_CLASS_1_POD_1_ZN_1_FLR_1,0.0,-53.00,0.00,0.00,-26.50,4.50,2.00,1,1,1,-53.00,0.00,0.00,9.00,0.00,4.00,4.00,1908.00,TARP,DOE-2,477.00,212.00,137.80,74.20,6,1,0,Yes
 Zone Information, MULT_CLASS_1_POD_2_ZN_1_FLR_1,0.0,-53.00,30.00,0.00,-26.50,34.50,2.00,1,1,1,-53.00,0.00,30.00,39.00,0.00,4.00,4.00,1908.00,TARP,DOE-2,477.00,212.00,137.80,74.20,6,1,0,Yes
 Zone Information, MULT_CLASS_1_POD_3_ZN_1_FLR_1,0.0,-53.00,61.00,0.00,-26.50,65.50,2.00,1,1,1,-53.00,0.00,61.00,70.00,0.00,4.00,4.00,1908.00,TARP,DOE-2,477.00,212.00,137.80,74.20,6,1,0,Yes
 Zone Information, MULT_CLASS_2_POD_1_ZN_1_FLR_1,0.0,-53.00,12.00,0.00,-26.50,16.50,2.00,1,1,1,-53.00,0.00,12.00,21.00,0.00,4.00,4.00,1908.00,TARP,DOE-2,477.00,212.00,137.80,74.20,6,1,0,Yes
 Zone Information, MULT_CLASS_2_POD_2_ZN_1_FLR_1,0.0,-53.00,42.00,0.00,-26.50,46.50,2.00,1,1,1,-53.00,0.00,42.00,51.00,0.00,4.00,4.00,1908.00,TARP,DOE-2,477.00,212.00,137.80,74.20,6,1,0,Yes
 Zone Information, MULT_CLASS_2_POD_3_ZN_1_FLR_1,0.0,-53.00,73.00,0.00,-35.50,77.50,2.00,1,1,1,-53.00,-18.00,73.00,82.00,0.00,4.00,4.00,1260.00,TARP,DOE-2,315.00,140.00,91.00,49.00,6,1,0,Yes
 Zone Information, OFFICES_ZN_1_FLR_1,0.0,19.00,0.00,0.00,29.50,10.50,2.00,1,1,1,19.00,40.00,0.00,21.00,0.00,4.00,4.00,1764.00,TARP,DOE-2,441.00,168.00,109.20,58.80,7,2,0,Yes
! <Zone Internal Gains Nominal>,Zone Name, Floor Area {m2},# Occupants,Area per Occupant {m2/person},Occupant per Area {person/m2},Interior Lighting {W/m2},Electric Load {W/m2},Gas Load {W/m2},Other Load {W/m2},Hot Water Eq {W/m2},Steam Equipment {W/m2},Sum Loads per Area {W/m2},Outdoor Controlled Baseboard Heat
 Zone Internal Gains Nominal, BATH_ZN_1_FLR_1,190.00,19.0,10.000,0.100,9.680,4.000,0.000,0.000,0.000,0.000,13.680,No
 Zone Internal Gains Nominal, CAFETERIA_ZN_1_FLR_1,315.00,226.6,1.390,0.719,15.060,25.390,0.000,0.000,0.000,0.000,40.450,No
 Zone Internal Gains Nominal, COMPUTER_CLASS_ZN_1_FLR_1,162.00,48.6,3.330,0.300,21.520,20.000,0.000,0.000,0.000,0.000,41.520,No
 Zone Internal Gains Nominal, CORNER_CLASS_1_POD_1_ZN_1_FLR_1,99.00,24.8,4.000,0.250,21.520,15.000,0.000,0.000,0.000,0.000,36.520,No
 Zone Internal Gains Nominal, CORNER_CLASS_1_POD_2_ZN_1_FLR_1,99.00,24.8,4.000,0.250,21.520,15.000,0.000,0.000,0.000,0.000,36.520,No
 Zone Internal Gains Nominal, CORNER_CLASS_1_POD_3_ZN_1_FLR_1,99.00,24.8,4.000,0.250,21.520,15.000,0.000,0.000,0.000,0.000,36.520,No
 Zone Internal Gains Nominal, CORNER_CLASS_2_POD_1_ZN_1_FLR_1,99.00,24.8,4.000,0.250,21.520,15.000,0.000,0.000,0.000,0.000,36.520,No
 Zone Internal Gains Nominal, CORNER_CLASS_2_POD_2_ZN_1_FLR_1,99.00,24.8,4.000,0.250,21.520,15.000,0.000,0.000,0.000,0.000,36.520,No
 Zone Internal Gains Nominal, CORNER_CLASS_2_POD_3_ZN_1_FLR_1,99.00,24.8,4.000,0.250,21.520,15.000,0.000,0.000,0.000,0.000,36.520,No
 Zone Internal Gains Nominal, CORRIDOR_POD_1_ZN_1_FLR_1,192.00,19.2,10.000,0.100,21.520,4.000,0.000,0.000,0.000,0.000,25.520,No
 Zone Internal Gains Nominal, CORRIDOR_POD_2_ZN_1_FLR_1,192.00,19.2,10.000,0.100,21.520,4.000,0.000,0.000,0.000,0.000,25.520,No
 Zone Internal Gains Nominal, CORRIDOR_POD_3_ZN_1_FLR_1,192.00,19.2,10.000,0.100,21.520,4.000,0.000,0.000,0.000,0.000,25.520,No
 Zone Internal Gains Nominal, GYM_ZN_1_FLR_1,357.00,107.2,3.330,0.300,11.470,5.000,0.000,0.000,0.000,0.000,16.470,No
 Zone Internal Gains Nominal, KITCHEN_ZN_1_FLR_1,168.00,25.2,6.667,0.150,17.200,193.881,954.071,0.000,0.000,0.000,1165.152,No
 Zone Internal Gains Nominal, LIBRARY_MEDIA_CENTER_ZN_1_FLR_1,399.00,91.7,4.350,0.230,22.750,15.000,0.000,0.000,0.000,0.000,37.750,No
 Zone Internal Gains Nominal, LOBBY_ZN_1_FLR_1,171.00,0.0,N/A,0.000,12.260,4.000,0.000,0.000,0.000,0.000,16.260,No
 Zone Internal Gains Nominal, MAIN_CORRIDOR_ZN_1_FLR_1,546.00,54.6,10.000,0.100,21.520,4.000,0.000,0.000,0.000,0.000,25.520,No
 Zone Internal Gains Nominal, MECH_ZN_1_FLR_1,252.00,0.0,N/A,0.000,8.260,4.000,0.000,0.000,0.000,0.000,12.260,No
 Zone Internal Gains Nominal, MULT_CLASS_1_POD_1_ZN_1_FLR_1,477.00,119.3,4.000,0.250,21.520,15.000,0.000,0.000,0.000,0.000,36.520,No
 Zone Internal Gains Nominal, MULT_CLASS_1_POD_2_ZN_1_FLR_1,477.00,119.3,4.000,0.250,21.520,15.000,0.000,0.000,0.000,0.000,36.520,No
 Zone Internal Gains Nominal, MULT_CLASS_1_POD_3_ZN_1_FLR_1,477.00,119.3,4.000,0.250,21.520,15.000,0.000,0.000,0.000,0.000,36.520,No
 Zone Internal Gains Nominal, MULT_CLASS_2_POD_1_ZN_1_FLR_1,477.00,119.3,4.000,0.250,21.520,15.000,0.000,0.000,0.000,0.000,36.520,No
 Zone Internal Gains Nominal, MULT_CLASS_2_POD_2_ZN_1_FLR_1,477.00,119.3,4.000,0.250,21.520,15.000,0.000,0.000,0.000,0.000,36.520,No
 Zone Internal Gains Nominal, MULT_CLASS_2_POD_3_ZN_1_FLR_1,315.00,78.8,4.000,0.250,21.520,15.000,0.000,0.000,0.000,0.000,36.520,No
 Zone Internal Gains Nominal, OFFICES_ZN_1_FLR_1,441.00,22.1,20.000,5.000E-002,20.330,10.800,0.000,0.000,0.000,0.000,31.130,No
! <People Internal Gains Nominal>,Name,Schedule Name,Zone Name,Zone Floor Area {m2},# Zone Occupants,Number of People {},People/Floor Area {person/m2},Floor Area per person {m2/person},Fraction Radiant,Fraction Convected,Sensible Fraction Calculation,Activity level,ASHRAE 55 Warnings,Carbon Dioxide Generation Rate,Nominal Minimum Number of People,Nominal Maximum Number of People,MRT Calculation Type,Work Efficiency, Clothing Insulation Calculation Method,Clothing Insulation Calculation Method Schedule,Clothing,Air Velocity,Fanger Calculation,Pierce Calculation,KSU Calculation
 People Internal Gains Nominal, BATH_ZN_1_FLR_1 PEOPLE,BLDG_OCC_SCH,BATH_ZN_1_FLR_1,190.00,19.0,19.0,0.100,10.000,0.300,0.700,AutoCalculate,ACTIVITY_SCH,No,3.8200E-008,0,14,Zone Averaged,WORK_EFF_SCH,Clothing Insulation Schedule,N/A,CLOTHING_SCH,AIR_VELO_SCH,Yes,No,No
 People Internal Gains Nominal, CAFETERIA_ZN_1_FLR_1 PEOPLE,BLDG_OCC_SCH_CAFETERIA,CAFETERIA_ZN_1_FLR_1,315.00,226.6,226.6,0.719,1.390,0.300,0.700,AutoCalculate,ACTIVITY_SCH,No,3.8200E-008,0,215,Zone Averaged,WORK_EFF_SCH,Clothing Insulation Schedule,N/A,CLOTHING_SCH,AIR_VELO_SCH,Yes,No,No
 People Internal Gains Nominal, COMPUTER_CLASS_ZN_1_FLR_1 PEOPLE,BLDG_OCC_SCH,COMPUTER_CLASS_ZN_1_FLR_1,162.00,48.6,48.6,0.300,3.330,0.300,0.700,AutoCalculate,ACTIVITY_SCH,No,3.8200E-008,0,36,Zone Averaged,WORK_EFF_SCH,Clothing Insulation Schedule,N/A,CLOTHING_SCH,AIR_VELO_SCH,Yes,No,No
 People Internal Gains Nominal, CORNER_CLASS_1_POD_1_ZN_1_FLR_1 PEOPLE,BLDG_OCC_SCH,CORNER_CLASS_1_POD_1_ZN_1_FLR_1,99.00,24.8,24.8,0.250,4.000,0.300,0.700,AutoCalculate,ACTIVITY_SCH,No,3.8200E-008,0,19,Zone Averaged,WORK_EFF_SCH,Clothing Insulation Schedule,N/A,CLOTHING_SCH,AIR_VELO_SCH,Yes,No,No
 People Internal Gains Nominal, CORNER_CLASS_1_POD_2_ZN_1_FLR_1 PEOPLE,BLDG_OCC_SCH,CORNER_CLASS_1_POD_2_ZN_1_FLR_1,99.00,24.8,24.8,0.250,4.000,0.300,0.700,AutoCalculate,ACTIVITY_SCH,No,3.8200E-008,0,19,Zone Averaged,WORK_EFF_SCH,Clothing Insulation Schedule,N/A,CLOTHING_SCH,AIR_VELO_SCH,Yes,No,No
 People Internal Gains Nominal, CORNER_CLASS_1_POD_3_ZN_1_FLR_1 PEOPLE,BLDG_OCC_SCH,CORNER_CLASS_1_POD_3_ZN_1_FLR_1,99.00,24.8,24.8,0.250,4.000,0.300,0.700,AutoCalculate,ACTIVITY_SCH,No,3.8200E-008,0,19,Zone Averaged,WORK_EFF_SCH,Clothing Insulation Schedule,N/A,CLOTHING_SCH,AIR_VELO_SCH,Yes,No,No
 People Internal Gains Nominal, CORNER_CLASS_2_POD_1_ZN_1_FLR_1 PEOPLE,BLDG_OCC_SCH,CORNER_CLASS_2_POD_1_ZN_1_FLR_1,99.00,24.8,24.8,0.250,4.000,0.300,0.700,AutoCalculate,ACTIVITY_SCH,No,3.8200E-008,0,19,Zone Averaged,WORK_EFF_SCH,Clothing Insulation Schedule,N/A,CLOTHING_SCH,AIR_VELO_SCH,Yes,No,No
 People Internal Gains Nominal, CORNER_CLASS_2_POD_2_ZN_1_FLR_1 PEOPLE,BLDG_OCC_SCH,CORNER_CLASS_2_POD_2_ZN_1_FLR_1,99.00,24.8,24.8,0.250,4.000,0.300,0.700,AutoCalculate,ACTIVITY_SCH,No,3.8200E-008,0,19,Zone Averaged,WORK_EFF_SCH,Clothing Insulation Schedule,N/A,CLOTHING_SCH,AIR_VELO_SCH,Yes,No,No
 People Internal Gains Nominal, CORNER_CLASS_2_POD_3_ZN_1_FLR_1 PEOPLE,BLDG_OCC_SCH,CORNER_CLASS_2_POD_3_ZN_1_FLR_1,99.00,24.8,24.8,0.250,4.000,0.300,0.700,AutoCalculate,ACTIVITY_SCH,No,3.8200E-008,0,19,Zone Averaged,WORK_EFF_SCH,Clothing Insulation Schedule,N/A,CLOTHING_SCH,AIR_VELO_SCH,Yes,No,No
 People Internal Gains Nominal, CORRIDOR_POD_1_ZN_1_FLR_1 PEOPLE,BLDG_OCC_SCH,CORRIDOR_POD_1_ZN_1_FLR_1,192.00,19.2,19.2,0.100,10.000,0.300,0.700,AutoCalculate,ACTIVITY_SCH,No,3.8200E-008,0,14,Zone Averaged,WORK_EFF_SCH,Clothing Insulation Schedule,N/A,CLOTHING_SCH,AIR_VELO_SCH,Yes,No,No
 People Internal Gains Nominal, CORRIDOR_POD_2_ZN_1_FLR_1 PEOPLE,BLDG_OCC_SCH,CORRIDOR_POD_2_ZN_1_FLR_1,192.00,19.2,19.2,0.100,10.000,0.300,0.700,AutoCalculate,ACTIVITY_SCH,No,3.8200E-008,0,14,Zone Averaged,WORK_EFF_SCH,Clothing Insulation Schedule,N/A,CLOTHING_SCH,AIR_VELO_SCH,Yes,No,No
 People Internal Gains Nominal, CORRIDOR_POD_3_ZN_1_FLR_1 PEOPLE,BLDG_OCC_SCH,CORRIDOR_POD_3_ZN_1_FLR_1,192.00,19.2,19.2,0.100,10.000,0.300,0.700,AutoCalculate,ACTIVITY_SCH,No,3.8200E-008,0,14,Zone Averaged,WORK_EFF_SCH,Clothing Insulation Schedule,N/A,CLOTHING_SCH,AIR_VELO_SCH,Yes,No,No
 People Internal Gains Nominal, GYM_ZN_1_FLR_1 PEOPLE,BLDG_OCC_SCH_GYM,GYM_ZN_1_FLR_1,357.00,107.2,107.2,0.300,3.330,0.300,0.700,AutoCalculate,ACTIVITY_SCH,No,3.8200E-008,0,102,Zone Averaged,WORK_EFF_SCH,Clothing Insulation Schedule,N/A,CLOTHING_SCH,AIR_VELO_SCH,Yes,No,No
 People Internal Gains Nominal, KITCHEN_ZN_1_FLR_1 PEOPLE,BLDG_OCC_SCH,KITCHEN_ZN_1_FLR_1,168.00,25.2,25.2,0.150,6.667,0.300,0.700,AutoCalculate,ACTIVITY_SCH,No,3.8200E-008,0,19,Zone Averaged,WORK_EFF_SCH,Clothing Insulation Schedule,N/A,CLOTHING_SCH,AIR_VELO_SCH,Yes,No,No
 People Internal Gains Nominal, LIBRARY_MEDIA_CENTER_ZN_1_FLR_1 PEOPLE,BLDG_OCC_SCH,LIBRARY_MEDIA_CENTER_ZN_1_FLR_1,399.00,91.7,91.7,0.230,4.350,0.300,0.700,AutoCalculate,ACTIVITY_SCH,No,3.8200E-008,0,69,Zone Averaged,WORK_EFF_SCH,Clothing Insulation Schedule,N/A,CLOTHING_SCH,AIR_VELO_SCH,Yes,No,No
 People Internal Gains Nominal, MAIN_CORRIDOR_ZN_1_FLR_1 PEOPLE,BLDG_OCC_SCH,MAIN_CORRIDOR_ZN_1_FLR_1,546.00,54.6,54.6,0.100,10.000,0.300,0.700,AutoCalculate,ACTIVITY_SCH,No,3.8200E-008,0,41,Zone Averaged,WORK_EFF_SCH,Clothing Insulation Schedule,N/A,CLOTHING_SCH,AIR_VELO_SCH,Yes,No,No
 People Internal Gains Nominal, MULT_CLASS_1_POD_1_ZN_1_FLR_1 PEOPLE,BLDG_OCC_SCH,MULT_CLASS_1_POD_1_ZN_1_FLR_1,477.00,119.3,119.3,0.250,4.000,0.300,0.700,AutoCalculate,ACTIVITY_SCH,No,3.8200E-008,0,89,Zone Averaged,WORK_EFF_SCH,Clothing Insulation Schedule,N/A,CLOTHING_SCH,AIR_VELO_SCH,Yes,No,No
 People Internal Gains Nominal, MULT_CLASS_1_POD_2_ZN_1_FLR_1 PEOPLE,BLDG_OCC_SCH,MULT_CLASS_1_POD_2_ZN_1_FLR_1,477.00,119.3,119.3,0.250,4.000,0.300,0.700,AutoCalculate,ACTIVITY_SCH,No,3.8200E-008,0,89,Zone Averaged,WORK_EFF_SCH,Clothing Insulation Schedule,N/A,CLOTHING_SCH,AIR_VELO_SCH,Yes,No,No
 People Internal Gains Nominal, MULT_CLASS_1_POD_3_ZN_1_FLR_1 PEOPLE,BLDG_OCC_SCH,MULT_CLASS_1_POD_3_ZN_1_FLR_1,477.00,119.3,119.3,0.250,4.000,0.300,0.700,AutoCalculate,ACTIVITY_SCH,No,3.8200E-008,0,89,Zone Averaged,WORK_EFF_SCH,Clothing Insulation Schedule,N/A,CLOTHING_SCH,AIR_VELO_SCH,Yes,No,No
 People Internal Gains Nominal, MULT_CLASS_2_POD_1_ZN_1_FLR_1 PEOPLE,BLDG_OCC_SCH,MULT_CLASS_2_POD_1_ZN_1_FLR_1,477.00,119.3,119.3,0.250,4.000,0.300,0.700,AutoCalculate,ACTIVITY_SCH,No,3.8200E-008,0,89,Zone Averaged,WORK_EFF_SCH,Clothing Insulation Schedule,N/A,CLOTHING_SCH,AIR_VELO_SCH,Yes,No,No
 People Internal Gains Nominal, MULT_CLASS_2_POD_2_ZN_1_FLR_1 PEOPLE,BLDG_OCC_SCH,MULT_CLASS_2_POD_2_ZN_1_FLR_1,477.00,119.3,119.3,0.250,4.000,0.300,0.700,AutoCalculate,ACTIVITY_SCH,No,3.8200E-008,0,89,Zone Averaged,WORK_EFF_SCH,Clothing Insulation Schedule,N/A,CLOTHING_SCH,AIR_VELO_SCH,Yes,No,No
 People Internal Gains Nominal, MULT_CLASS_2_POD_3_ZN_1_FLR_1 PEOPLE,BLDG_OCC_SCH,MULT_CLASS_2_POD_3_ZN_1_FLR_1,315.00,78.8,78.8,0.250,4.000,0.300,0.700,AutoCalculate,ACTIVITY_SCH,No,3.8200E-008,0,59,Zone Averaged,WORK_EFF_SCH,Clothing Insulation Schedule,N/A,CLOTHING_SCH,AIR_VELO_SCH,Yes,No,No
 People Internal Gains Nominal, OFFICES_ZN_1_FLR_1 PEOPLE,BLDG_OCC_SCH_OFFICES,OFFICES_ZN_1_FLR_1,441.00,22.1,22.1,5.000E-002,20.000,0.300,0.700,AutoCalculate,ACTIVITY_SCH,No,3.8200E-008,0,21,Zone Averaged,WORK_EFF_SCH,Clothing Insulation Schedule,N/A,CLOTHING_SCH,AIR_VELO_SCH,Yes,No,No
! <Lights Internal Gains Nominal>,Name,Schedule Name,Zone Name,Zone Floor Area {m2},# Zone Occupants,Lighting Level {W},Lights/Floor Area {W/m2},Lights per person {W/person},Fraction Return Air,Fraction Radiant,Fraction Short Wave,Fraction Convected,Fraction Replaceable,End-Use Category,Nominal Minimum Lighting Level {W},Nominal Maximum Lighting Level {W}
 Lights Internal Gains Nominal, BATH_ZN_1_FLR_1_LIGHTS,BLDG_LIGHT_SCH,BATH_ZN_1_FLR_1,190.00,19.0,1839.200,9.680,96.800,0.000,0.370,0.200,0.430,1.000,General,326.090,1655.280
 Lights Internal Gains Nominal, CAFETERIA_ZN_1_FLR_1_LIGHTS,BLDG_LIGHT_SCH,CAFETERIA_ZN_1_FLR_1,315.00,226.6,4743.900,15.060,20.933,0.000,0.370,0.200,0.430,1.000,General,841.093,4269.510
 Lights Internal Gains Nominal, COMPUTER_CLASS_ZN_1_FLR_1_LIGHTS,BLDG_LIGHT_SCH,COMPUTER_CLASS_ZN_1_FLR_1,162.00,48.6,3486.240,21.520,71.662,0.000,0.370,0.200,0.430,1.000,General,618.110,3137.616
 Lights Internal Gains Nominal, CORNER_CLASS_1_POD_1_ZN_1_FLR_1_LIGHTS,BLDG_LIGHT_SCH,CORNER_CLASS_1_POD_1_ZN_1_FLR_1,99.00,24.8,2130.480,21.520,86.080,0.000,0.370,0.200,0.430,1.000,General,377.734,1917.432
 Lights Internal Gains Nominal, CORNER_CLASS_1_POD_2_ZN_1_FLR_1_LIGHTS,BLDG_LIGHT_SCH,CORNER_CLASS_1_POD_2_ZN_1_FLR_1,99.00,24.8,2130.480,21.520,86.080,0.000,0.370,0.200,0.430,1.000,General,377.734,1917.432
 Lights Internal Gains Nominal, CORNER_CLASS_1_POD_3_ZN_1_FLR_1_LIGHTS,BLDG_LIGHT_SCH,CORNER_CLASS_1_POD_3_ZN_1_FLR_1,99.00,24.8,2130.480,21.520,86.080,0.000,0.370,0.200,0.430,1.000,General,377.734,1917.432
 Lights Internal Gains Nominal, CORNER_CLASS_2_POD_1_ZN_1_FLR_1_LIGHTS,BLDG_LIGHT_SCH,CORNER_CLASS_2_POD_1_ZN_1_FLR_1,99.00,24.8,2130.480,21.520,86.080,0.000,0.370,0.200,0.430,1.000,General,377.734,1917.432
 Lights Internal Gains Nominal, CORNER_CLASS_2_POD_2_ZN_1_FLR_1_LIGHTS,BLDG_LIGHT_SCH,CORNER_CLASS_2_POD_2_ZN_1_FLR_1,99.00,24.8,2130.480,21.520,86.080,0.000,0.370,0.200,0.430,1.000,General,377.734,1917.432
 Lights Internal Gains Nominal, CORNER_CLASS_2_POD_3_ZN_1_FLR_1_LIGHTS,BLDG_LIGHT_SCH,CORNER_CLASS_2_POD_3_ZN_1_FLR_1,99.00,24.8,2130.480,21.520,86.080,0.000,0.370,0.200,0.430,1.000,General,377.734,1917.432
 Lights Internal Gains Nominal, CORRIDOR_POD_1_ZN_1_FLR_1_LIGHTS,BLDG_LIGHT_SCH,CORRIDOR_POD_1_ZN_1_FLR_1,192.00,19.2,4131.840,21.520,215.200,0.000,0.370,0.200,0.430,1.000,General,732.575,3718.656
 Lights Internal Gains Nominal, CORRIDOR_POD_2_ZN_1_FLR_1_LIGHTS,BLDG_LIGHT_SCH,CORRIDOR_POD_2_ZN_1_FLR_1,192.00,19.2,4131.840,21.520,215.200,0.000,0.370,0.200,0.430,1.000,General,732.575,3718.656
 Lights Internal Gains Nominal, CORRIDOR_POD_3_ZN_1_FLR_1_LIGHTS,BLDG_LIGHT_SCH,CORRIDOR_POD_3_ZN_1_FLR_1,192.00,19.2,4131.840,21.520,215.200,0.000,0.370,0.200,0.430,1.000,General,732.575,3718.656
 Lights Internal Gains Nominal, GYM_ZN_1_FLR_1_LIGHTS,BLDG_LIGHT_SCH,GYM_ZN_1_FLR_1,357.00,107.2,4094.790,11.470,38.195,0.000,0.370,0.200,0.430,1.000,General,726.006,3685.311
 Lights Internal Gains Nominal, KITCHEN_ZN_1_FLR_1_LIGHTS,BLDG_LIGHT_SCH,KITCHEN_ZN_1_FLR_1,168.00,25.2,2889.600,17.200,114.667,0.000,0.370,0.200,0.430,1.000,General,512.326,2600.640
 Lights Internal Gains Nominal, LIBRARY_MEDIA_CENTER_ZN_1_FLR_1_LIGHTS,BLDG_LIGHT_SCH,LIBRARY_MEDIA_CENTER_ZN_1_FLR_1,399.00,91.7,9077.250,22.750,98.963,0.000,0.370,0.200,0.430,1.000,General,1609.396,8169.525
 Lights Internal Gains Nominal, LOBBY_ZN_1_FLR_1_LIGHTS,BLDG_LIGHT_SCH,LOBBY_ZN_1_FLR_1,171.00,0.0,2096.460,12.260,N/A,0.000,0.370,0.200,0.430,1.000,General,371.702,1886.814
 Lights Internal Gains Nominal, MAIN_CORRIDOR_ZN_1_FLR_1_LIGHTS,BLDG_LIGHT_SCH,MAIN_CORRIDOR_ZN_1_FLR_1,546.00,54.6,11749.920,21.520,215.200,0.000,0.370,0.200,0.430,1.000,General,2083.261,10574.928
 Lights Internal Gains Nominal, MECH_ZN_1_FLR_1_LIGHTS,BLDG_LIGHT_SCH,MECH_ZN_1_FLR_1,252.00,0.0,2081.520,8.260,N/A,0.000,0.370,0.200,0.430,1.000,General,369.053,1873.368
 Lights Internal Gains Nominal, MULT_CLASS_1_POD_1_ZN_1_FLR_1_LIGHTS,BLDG_LIGHT_SCH,MULT_CLASS_1_POD_1_ZN_1_FLR_1,477.00,119.3,10265.040,21.520,86.080,0.000,0.370,0.200,0.430,1.000,General,1819.992,9238.536
[...]
 Component Sizing Information, AirLoopHVAC, PSZ-AC_2:5, Design Supply Air Flow Rate [m3/s], 1.07207
 Component Sizing Information, AirLoopHVAC, PSZ-AC_2:7, Design Supply Air Flow Rate [m3/s], 2.26619
 Component Sizing Information, AirLoopHVAC, VAV_OTHER, Design Supply Air Flow Rate [m3/s], 6.41916
 Component Sizing Information, AirLoopHVAC, VAV_POD_1, Design Supply Air Flow Rate [m3/s], 6.27285
 Component Sizing Information, AirLoopHVAC, VAV_POD_2, Design Supply Air Flow Rate [m3/s], 4.79673
 Component Sizing Information, AirLoopHVAC, VAV_POD_3, Design Supply Air Flow Rate [m3/s], 5.01495
 Component Sizing Information, Controller:OutdoorAir, PSZ-AC_1:6_OA_CONTROLLER, Maximum Outdoor Air Flow Rate [m3/s], 0.67318
 Component Sizing Information, Controller:OutdoorAir, PSZ-AC_1:6_OA_CONTROLLER, Minimum Outdoor Air Flow Rate [m3/s], 0.20160
 Component Sizing Information, Coil:Cooling:DX:SingleSpeed, PSZ-AC_1:6_COOLC DXCOIL, Design Size Rated Air Flow Rate [m3/s], 0.67318
 Component Sizing Information, Coil:Cooling:DX:SingleSpeed, PSZ-AC_1:6_COOLC DXCOIL, Design Size Gross Rated Total Cooling Capacity [W], 16716.64606
 Component Sizing Information, Coil:Cooling:DX:SingleSpeed, PSZ-AC_1:6_COOLC DXCOIL, Design Size Gross Rated Sensible Heat Ratio, 0.69808
! <DX Cooling Coil Standard Rating Information>, Component Type, Component Name, Standard Rating (Net) Cooling Capacity {W}, Standard Rated Net COP {W/W}, EER {Btu/W-h}, SEER {Btu/W-h}, IEER {Btu/W-h}
 DX Cooling Coil Standard Rating Information, Coil:Cooling:DX:SingleSpeed, PSZ-AC_1:6_COOLC DXCOIL, 16194.4, 3.19, 10.88, 12.53, 12.16
 Component Sizing Information, Coil:Heating:Fuel, PSZ-AC_1:6_HEATC, Design Size Nominal Capacity [W], 48202.89050
 Component Sizing Information, Fan:ConstantVolume, PSZ-AC_1:6_FAN, Design Size Maximum Flow Rate [m3/s], 0.67318
 Component Sizing Information, Controller:OutdoorAir, PSZ-AC_2:5_OA_CONTROLLER, Maximum Outdoor Air Flow Rate [m3/s], 1.07207
 Component Sizing Information, Controller:OutdoorAir, PSZ-AC_2:5_OA_CONTROLLER, Minimum Outdoor Air Flow Rate [m3/s], 1.07207
 Component Sizing Information, Coil:Cooling:DX:SingleSpeed, PSZ-AC_2:5_COOLC DXCOIL, Design Size Rated Air Flow Rate [m3/s], 1.07207
 Component Sizing Information, Coil:Cooling:DX:SingleSpeed, PSZ-AC_2:5_COOLC DXCOIL, Design Size Gross Rated Total Cooling Capacity [W], 26622.10261
 Component Sizing Information, Coil:Cooling:DX:SingleSpeed, PSZ-AC_2:5_COOLC DXCOIL, Design Size Gross Rated Sensible Heat Ratio, 0.69808
 DX Cooling Coil Standard Rating Information, Coil:Cooling:DX:SingleSpeed, PSZ-AC_2:5_COOLC DXCOIL, 25790.4, 3.06, 10.43, 12.03, 11.72
 Component Sizing Information, Coil:Heating:Fuel, PSZ-AC_2:5_HEATC, Design Size Nominal Capacity [W], 76765.53611
 Component Sizing Information, Fan:ConstantVolume, PSZ-AC_2:5_FAN, Design Size Maximum Flow Rate [m3/s], 1.07207
 Component Sizing Information, Controller:OutdoorAir, PSZ-AC_2:7_OA_CONTROLLER, Maximum Outdoor Air Flow Rate [m3/s], 2.26619
 Component Sizing Information, Controller:OutdoorAir, PSZ-AC_2:7_OA_CONTROLLER, Minimum Outdoor Air Flow Rate [m3/s], 2.26619
 Component Sizing Information, Coil:Cooling:DX:TwoSpeed, PSZ-AC_2:7_COOLC DXCOIL, Design Size High Speed Rated Air Flow Rate [m3/s], 2.26619
 Component Sizing Information, Coil:Cooling:DX:TwoSpeed, PSZ-AC_2:7_COOLC DXCOIL, Design Size High Speed Gross Rated Total Cooling Capacity [W], 56274.82122
 Component Sizing Information, Coil:Cooling:DX:TwoSpeed, PSZ-AC_2:7_COOLC DXCOIL, Design Size High Speed Rated Sensible Heat Ratio, 0.69808
 Component Sizing Information, Coil:Cooling:DX:TwoSpeed, PSZ-AC_2:7_COOLC DXCOIL, Design Size Low Speed Rated Air Flow Rate [m3/s], 0.75532
 Component Sizing Information, Coil:Cooling:DX:TwoSpeed, PSZ-AC_2:7_COOLC DXCOIL, Design Size Low Speed Gross Rated Total Cooling Capacity [W], 18756.39791
 Component Sizing Information, Coil:Cooling:DX:TwoSpeed, PSZ-AC_2:7_COOLC DXCOIL, Design Size Low Speed Gross Rated Sensible Heat Ratio, 0.69808
 Component Sizing Information, Coil:Heating:Fuel, PSZ-AC_2:7_HEATC, Design Size Nominal Capacity [W], 162269.93350
 Component Sizing Information, Fan:ConstantVolume, PSZ-AC_2:7_FAN, Design Size Maximum Flow Rate [m3/s], 2.26619
 Component Sizing Information, Controller:OutdoorAir, VAV_OTHER_OA_CONTROLLER, Maximum Outdoor Air Flow Rate [m3/s], 6.41916
 Component Sizing Information, Controller:OutdoorAir, VAV_OTHER_OA_CONTROLLER, Minimum Outdoor Air Flow Rate [m3/s], 2.23998
 Component Sizing Information, Coil:Cooling:DX:TwoSpeed, VAV_OTHER_COOLC DXCOIL, Design Size High Speed Rated Air Flow Rate [m3/s], 6.41916
 Component Sizing Information, Coil:Cooling:DX:TwoSpeed, VAV_OTHER_COOLC DXCOIL, Design Size High Speed Gross Rated Total Cooling Capacity [W], 159403.05815
 Component Sizing Information, Coil:Cooling:DX:TwoSpeed, VAV_OTHER_COOLC DXCOIL, Design Size High Speed Rated Sensible Heat Ratio, 0.69808
 Component Sizing Information, Coil:Cooling:DX:TwoSpeed, VAV_OTHER_COOLC DXCOIL, Design Size Low Speed Rated Air Flow Rate [m3/s], 2.13951
 Component Sizing Information, Coil:Cooling:DX:TwoSpeed, VAV_OTHER_COOLC DXCOIL, Design Size Low Speed Gross Rated Total Cooling Capacity [W], 53129.03928
 Component Sizing Information, Coil:Cooling:DX:TwoSpeed, VAV_OTHER_COOLC DXCOIL, Design Size Low Speed Gross Rated Sensible Heat Ratio, 0.69808
! <VAV DX Cooling Coil Standard Rating Information>, DX Coil Type, DX Coil Name, Fan Type, Fan Name, Standard Net Cooling Capacity {W}, Standard Net Cooling Capacity {Btu/h}, IEER {Btu/W-h}, COP 100% Capacity {W/W}, COP 75% Capacity {W/W}, COP 50% Capacity {W/W}, COP 25% Capacity {W/W}, EER 100% Capacity {Btu/W-h}, EER 75% Capacity {Btu/W-h}, EER 50% Capacity {Btu/W-h}, EER 25% Capacity {Btu/W-h}, Supply Air Flow 100% {kg/s}, Supply Air Flow 75% {kg/s},Supply Air Flow 50% {kg/s},Supply Air Flow 25% {kg/s}
 VAV DX Cooling Coil Standard Rating Information, Coil:Cooling:DX:TwoSpeed,VAV_OTHER_COOLC DXCOIL,N/A,N/A,154201.85,526158.55,11.69,2.84,3.27,3.69,3.80,9.69,11.15,12.59,12.95,7.2493,5.8342,3.9160,1.6714,
 Component Sizing Information, Coil:Heating:Water, VAV_OTHER_HEATC, Design Size Rated Capacity [W], 84874.65963
 Component Sizing Information, Coil:Heating:Water, VAV_OTHER_HEATC, Design Size Maximum Water Flow Rate [m3/s], 1.85831E-003
 Component Sizing Information, Coil:Heating:Water, VAV_OTHER_HEATC, Design Size U-Factor Times Area Value [W/K], 1115.05829
Water Heating Coil Capacity Information,Coil:Heating:Water,VAV_OTHER_HEATC,54328.82
 Component Sizing Information, Fan:VariableVolume, VAV_OTHER_FAN, Design Size Maximum Flow Rate [m3/s], 6.41916
 Component Sizing Information, Controller:WaterCoil, VAV_OTHER_HEATC_CONTROLLER, Maximum Actuated Flow [m3/s], 1.85831E-003
 Component Sizing Information, Controller:OutdoorAir, VAV_POD_1_OA_CONTROLLER, Maximum Outdoor Air Flow Rate [m3/s], 6.27285
 Component Sizing Information, Controller:OutdoorAir, VAV_POD_1_OA_CONTROLLER, Minimum Outdoor Air Flow Rate [m3/s], 2.59800
 Component Sizing Information, Coil:Cooling:DX:TwoSpeed, VAV_POD_1_COOLC DXCOIL, Design Size High Speed Rated Air Flow Rate [m3/s], 6.27285
 Component Sizing Information, Coil:Cooling:DX:TwoSpeed, VAV_POD_1_COOLC DXCOIL, Design Size High Speed Gross Rated Total Cooling Capacity [W], 155769.69679
 Component Sizing Information, Coil:Cooling:DX:TwoSpeed, VAV_POD_1_COOLC DXCOIL, Design Size High Speed Rated Sensible Heat Ratio, 0.69808
 Component Sizing Information, Coil:Cooling:DX:TwoSpeed, VAV_POD_1_COOLC DXCOIL, Design Size Low Speed Rated Air Flow Rate [m3/s], 2.09074
 Component Sizing Information, Coil:Cooling:DX:TwoSpeed, VAV_POD_1_COOLC DXCOIL, Design Size Low Speed Gross Rated Total Cooling Capacity [W], 51918.03994
 Component Sizing Information, Coil:Cooling:DX:TwoSpeed, VAV_POD_1_COOLC DXCOIL, Design Size Low Speed Gross Rated Sensible Heat Ratio, 0.69808
 VAV DX Cooling Coil Standard Rating Information, Coil:Cooling:DX:TwoSpeed,VAV_POD_1_COOLC DXCOIL,N/A,N/A,150687.04,514165.53,11.69,2.84,3.27,3.69,3.80,9.69,11.15,12.59,12.95,7.0841,5.7013,3.8267,1.6333,
 Component Sizing Information, Coil:Heating:Water, VAV_POD_1_HEATC, Design Size Rated Capacity [W], 82940.06496
 Component Sizing Information, Coil:Heating:Water, VAV_POD_1_HEATC, Design Size Maximum Water Flow Rate [m3/s], 1.81595E-003
 Component Sizing Information, Coil:Heating:Water, VAV_POD_1_HEATC, Design Size U-Factor Times Area Value [W/K], 1089.64216
Water Heating Coil Capacity Information,Coil:Heating:Water,VAV_POD_1_HEATC,53090.48
 Component Sizing Information, Fan:VariableVolume, VAV_POD_1_FAN, Design Size Maximum Flow Rate [m3/s], 6.27285
 Component Sizing Information, Controller:WaterCoil, VAV_POD_1_HEATC_CONTROLLER, Maximum Actuated Flow [m3/s], 1.81595E-003
 Component Sizing Information, Controller:OutdoorAir, VAV_POD_2_OA_CONTROLLER, Maximum Outdoor Air Flow Rate [m3/s], 4.79673
 Component Sizing Information, Controller:OutdoorAir, VAV_POD_2_OA_CONTROLLER, Minimum Outdoor Air Flow Rate [m3/s], 2.20200
 Component Sizing Information, Coil:Cooling:DX:TwoSpeed, VAV_POD_2_COOLC DXCOIL, Design Size High Speed Rated Air Flow Rate [m3/s], 4.79673
 Component Sizing Information, Coil:Cooling:DX:TwoSpeed, VAV_POD_2_COOLC DXCOIL, Design Size High Speed Gross Rated Total Cooling Capacity [W], 119114.28552
 Component Sizing Information, Coil:Cooling:DX:TwoSpeed, VAV_POD_2_COOLC DXCOIL, Design Size High Speed Rated Sensible Heat Ratio, 0.69808
 Component Sizing Information, Coil:Cooling:DX:TwoSpeed, VAV_POD_2_COOLC DXCOIL, Design Size Low Speed Rated Air Flow Rate [m3/s], 1.59875
 Component Sizing Information, Coil:Cooling:DX:TwoSpeed, VAV_POD_2_COOLC DXCOIL, Design Size Low Speed Gross Rated Total Cooling Capacity [W], 39700.79136
 Component Sizing Information, Coil:Cooling:DX:TwoSpeed, VAV_POD_2_COOLC DXCOIL, Design Size Low Speed Gross Rated Sensible Heat Ratio, 0.69808
 VAV DX Cooling Coil Standard Rating Information, Coil:Cooling:DX:TwoSpeed,VAV_POD_2_COOLC DXCOIL,N/A,N/A,115227.67,393173.13,11.69,2.84,3.27,3.69,3.80,9.69,11.15,12.59,12.95,5.4171,4.3596,2.9262,1.2490,
 Component Sizing Information, Coil:Heating:Water, VAV_POD_2_HEATC, Design Size Rated Capacity [W], 63422.77594
 Component Sizing Information, Coil:Heating:Water, VAV_POD_2_HEATC, Design Size Maximum Water Flow Rate [m3/s], 1.38862E-003
 Component Sizing Information, Coil:Heating:Water, VAV_POD_2_HEATC, Design Size U-Factor Times Area Value [W/K], 833.22976
Water Heating Coil Capacity Information,Coil:Heating:Water,VAV_POD_2_HEATC,40597.33
 Component Sizing Information, Fan:VariableVolume, VAV_POD_2_FAN, Design Size Maximum Flow Rate [m3/s], 4.79673
 Component Sizing Information, Controller:WaterCoil, VAV_POD_2_HEATC_CONTROLLER, Maximum Actuated Flow [m3/s], 1.38862E-003
 Component Sizing Information, Controller:OutdoorAir, VAV_POD_3_OA_CONTROLLER, Maximum Outdoor Air Flow Rate [m3/s], 5.01495
 Component Sizing Information, Controller:OutdoorAir, VAV_POD_3_OA_CONTROLLER, Minimum Outdoor Air Flow Rate [m3/s], 2.07600
 Component Sizing Information, Coil:Cooling:DX:TwoSpeed, VAV_POD_3_COOLC DXCOIL, Design Size High Speed Rated Air Flow Rate [m3/s], 5.01495
 Component Sizing Information, Coil:Cooling:DX:TwoSpeed, VAV_POD_3_COOLC DXCOIL, Design Size High Speed Gross Rated Total Cooling Capacity [W], 124533.13289
 Component Sizing Information, Coil:Cooling:DX:TwoSpeed, VAV_POD_3_COOLC DXCOIL, Design Size High Speed Rated Sensible Heat Ratio, 0.69808
 Component Sizing Information, Coil:Cooling:DX:TwoSpeed, VAV_POD_3_COOLC DXCOIL, Design Size Low Speed Rated Air Flow Rate [m3/s], 1.67148
 Component Sizing Information, Coil:Cooling:DX:TwoSpeed, VAV_POD_3_COOLC DXCOIL, Design Size Low Speed Gross Rated Total Cooling Capacity [W], 41506.89319
 Component Sizing Information, Coil:Cooling:DX:TwoSpeed, VAV_POD_3_COOLC DXCOIL, Design Size Low Speed Gross Rated Sensible Heat Ratio, 0.69808
 VAV DX Cooling Coil Standard Rating Information, Coil:Cooling:DX:TwoSpeed,VAV_POD_3_COOLC DXCOIL,N/A,N/A,120469.71,411059.70,11.69,2.84,3.27,3.69,3.80,9.69,11.15,12.59,12.95,5.6635,4.5580,3.0593,1.3058,
 Component Sizing Information, Coil:Heating:Water, VAV_POD_3_HEATC, Design Size Rated Capacity [W], 66308.05827
 Component Sizing Information, Coil:Heating:Water, VAV_POD_3_HEATC, Design Size Maximum Water Flow Rate [m3/s], 1.45180E-003
 Component Sizing Information, Coil:Heating:Water, VAV_POD_3_HEATC, Design Size U-Factor Times Area Value [W/K], 871.13575
Water Heating Coil Capacity Information,Coil:Heating:Water,VAV_POD_3_HEATC,42444.22
 Component Sizing Information, Fan:VariableVolume, VAV_POD_3_FAN, Design Size Maximum Flow Rate [m3/s], 5.01495
 Component Sizing Information, Controller:WaterCoil, VAV_POD_3_HEATC_CONTROLLER, Maximum Actuated Flow [m3/s], 1.45180E-003
Water Heater Information,WaterHeater:Mixed,SWHSYS1 WATER HEATER,1.0000,845000.0,0.693,0.5832
 Component Sizing Information, PlantLoop, HEATSYS1, Maximum Loop Flow Rate [m3/s], 2.06802E-002
 Component Sizing Information, PlantLoop, HEATSYS1, Plant Loop Volume [m3], 2.48162
 Component Sizing Information, Pump:VariableSpeed, HEATSYS1 PUMP, Design Flow Rate [m3/s], 2.06802E-002
 Component Sizing Information, Pump:VariableSpeed, HEATSYS1 PUMP, Design Power Consumption [W], 5283.51372
 Component Sizing Information, Boiler:HotWater, HEATSYS1 BOILER, Design Size Nominal Capacity [W], 944526.26462
 Component Sizing Information, Boiler:HotWater, HEATSYS1 BOILER, Design Size Design Water Flow Rate [m3/s], 2.06802E-002
 Component Sizing Information, PlantLoop, SWHSYS1, Maximum Loop Flow Rate [m3/s], 1.64400E-004
 Component Sizing Information, PlantLoop, SWHSYS1, Plant Loop Volume [m3], 1.97280E-002
 Component Sizing Information, Pump:VariableSpeed, SWHSYS1 PUMP, Design Flow Rate [m3/s], 1.64400E-004
 Component Sizing Information, Pump:VariableSpeed, SWHSYS1 PUMP, Design Power Consumption [W], 2.10769E-004
 Component Sizing Information, WaterHeater:Mixed, SWHSYS1 WATER HEATER, Use Side Design Flow Rate [m3/s], 1.64400E-004
! <Environment>,Environment Name,Environment Type, Start Date, End Date, Start DayOfWeek, Duration {#days}, Source:Start DayOfWeek,  Use Daylight Saving, Use Holidays, Apply Weekend Holiday Rule,  Use Rain Values, Use Snow Values
! <Environment:Special Days>, Special Day Name, Special Day Type, Source, Start Date, Duration {#days}
! <Environment:Daylight Saving>, Daylight Saving Indicator, Source, Start Date, End Date
! <Environment:WarmupDays>, NumberofWarmupDays
Environment,RUNPERIOD 1,WeatherFileRunPeriod,01/01/2017,12/31/2017,Sunday,365,Use RunPeriod Specified Day,No,No,No,Yes,Yes
Environment:Daylight Saving,Yes,InputFile,03/12,11/05
Environment:Special Days,NEW YEARS DAY,Holiday,InputFile,01/01,  1
Environment:Special Days,VETERANS DAY,Holiday,InputFile,11/11,  1
Environment:Special Days,CHRISTMAS,Holiday,InputFile,12/25,  1
Environment:Special Days,INDEPENDENCE DAY,Holiday,InputFile,07/04,  1
Environment:Special Days,MLK DAY,Holiday,InputFile,01/16,  1
Environment:Special Days,PRESIDENTS DAY,Holiday,InputFile,02/20,  1
Environment:Special Days,MEMORIAL DAY,Holiday,InputFile,05/29,  1
Environment:Special Days,LABOR DAY,Holiday,InputFile,09/04,  1
Environment:Special Days,COLUMBUS DAY,Holiday,InputFile,10/09,  1
Environment:Special Days,THANKSGIVING,Holiday,InputFile,11/23,  1
Environment:WarmupDays,  6
! <Warmup Convergence Information>,Zone Name,Environment Type/Name,Average Warmup Temperature Difference {deltaC},Std Dev Warmup Temperature Difference {deltaC},Max Temperature Pass/Fail Convergence,Min Temperature Pass/Fail Convergence,Average Warmup Load Difference {W},Std Dev Warmup Load Difference {W},Heating Load Pass/Fail Convergence,Cooling Load Pass/Fail Convergence
 Warmup Convergence Information,BATH_ZN_1_FLR_1,RunPeriod: RUNPERIOD 1,0.2112335842,0.2721138505,Pass,Pass,0.4472952455,0.4774630711,Pass,Pass
 Warmup Convergence Information,CAFETERIA_ZN_1_FLR_1,RunPeriod: RUNPERIOD 1,0.4484298324,0.5483166203,Pass,Pass,0.5014863114,0.4774624921,Pass,Pass
 Warmup Convergence Information,COMPUTER_CLASS_ZN_1_FLR_1,RunPeriod: RUNPERIOD 1,0.3372645103,0.4288814067,Pass,Pass,0.4406557128,0.4784056617,Pass,Pass
 Warmup Convergence Information,CORNER_CLASS_1_POD_1_ZN_1_FLR_1,RunPeriod: RUNPERIOD 1,0.6147760875,0.8319504847,Pass,Pass,0.5561493069,0.7583119091,Pass,Pass
 Warmup Convergence Information,CORNER_CLASS_1_POD_2_ZN_1_FLR_1,RunPeriod: RUNPERIOD 1,0.6263050183,0.8342708850,Pass,Pass,0.5549305622,0.6769168526,Pass,Pass
 Warmup Convergence Information,CORNER_CLASS_1_POD_3_ZN_1_FLR_1,RunPeriod: RUNPERIOD 1,0.6237133942,0.8331856019,Pass,Pass,0.6519910099,1.1733597841,Pass,Pass
 Warmup Convergence Information,CORNER_CLASS_2_POD_1_ZN_1_FLR_1,RunPeriod: RUNPERIOD 1,0.7682943359,0.8499194957,Pass,Pass,0.5015264523,0.4777655011,Pass,Pass
 Warmup Convergence Information,CORNER_CLASS_2_POD_2_ZN_1_FLR_1,RunPeriod: RUNPERIOD 1,0.7688209961,0.8503505223,Pass,Pass,0.5014939475,0.4776711074,Pass,Pass
 Warmup Convergence Information,CORNER_CLASS_2_POD_3_ZN_1_FLR_1,RunPeriod: RUNPERIOD 1,0.7684116649,0.8524411039,Pass,Pass,0.5014206865,0.4774616894,Pass,Pass
 Warmup Convergence Information,CORRIDOR_POD_1_ZN_1_FLR_1,RunPeriod: RUNPERIOD 1,8.1811482272E-002,9.2779180325E-002,Pass,Pass,0.5616801639,0.5775857661,Pass,Pass
 Warmup Convergence Information,CORRIDOR_POD_2_ZN_1_FLR_1,RunPeriod: RUNPERIOD 1,8.1942672787E-002,9.3998096703E-002,Pass,Pass,0.5929807619,0.7137854188,Pass,Pass
 Warmup Convergence Information,CORRIDOR_POD_3_ZN_1_FLR_1,RunPeriod: RUNPERIOD 1,8.2519242426E-002,9.4805571664E-002,Pass,Pass,0.6862094972,1.6911796567,Pass,Pass
 Warmup Convergence Information,GYM_ZN_1_FLR_1,RunPeriod: RUNPERIOD 1,0.1582377615,0.2365141917,Pass,Pass,0.2568021867,0.4290204670,Pass,Pass
 Warmup Convergence Information,KITCHEN_ZN_1_FLR_1,RunPeriod: RUNPERIOD 1,0.1325554033,0.2244838039,Pass,Pass,0.2891620167,0.6372262572,Pass,Pass
 Warmup Convergence Information,LIBRARY_MEDIA_CENTER_ZN_1_FLR_1,RunPeriod: RUNPERIOD 1,0.3114330187,0.3976690476,Pass,Pass,0.4426851421,0.4786259176,Pass,Pass
 Warmup Convergence Information,LOBBY_ZN_1_FLR_1,RunPeriod: RUNPERIOD 1,0.3824425306,0.4719562716,Pass,Pass,0.4807105594,0.6264176379,Pass,Pass
 Warmup Convergence Information,MAIN_CORRIDOR_ZN_1_FLR_1,RunPeriod: RUNPERIOD 1,6.2518561660E-002,6.1090775663E-002,Pass,Pass,0.6885780986,2.5409288595,Pass,Pass
 Warmup Convergence Information,MECH_ZN_1_FLR_1,RunPeriod: RUNPERIOD 1,4.6205599587E-002,4.3157485686E-002,Pass,Pass,0.5297272649,0.7440361193,Pass,Pass
 Warmup Convergence Information,MULT_CLASS_1_POD_1_ZN_1_FLR_1,RunPeriod: RUNPERIOD 1,0.3074782961,0.4220649743,Pass,Pass,0.5840727695,1.0124610164,Pass,Pass
 Warmup Convergence Information,MULT_CLASS_1_POD_2_ZN_1_FLR_1,RunPeriod: RUNPERIOD 1,0.3082101429,0.4240301698,Pass,Pass,0.5792926347,0.7078639435,Pass,Pass
 Warmup Convergence Information,MULT_CLASS_1_POD_3_ZN_1_FLR_1,RunPeriod: RUNPERIOD 1,0.3090899063,0.4241625470,Pass,Pass,0.5658883994,0.6425805415,Pass,Pass
 Warmup Convergence Information,MULT_CLASS_2_POD_1_ZN_1_FLR_1,RunPeriod: RUNPERIOD 1,0.3693701034,0.4399365280,Pass,Pass,0.5029093265,0.4792986435,Pass,Pass
 Warmup Convergence Information,MULT_CLASS_2_POD_2_ZN_1_FLR_1,RunPeriod: RUNPERIOD 1,0.3698117786,0.4403091017,Pass,Pass,0.5032443942,0.4795449690,Pass,Pass
 Warmup Convergence Information,MULT_CLASS_2_POD_3_ZN_1_FLR_1,RunPeriod: RUNPERIOD 1,0.3708146214,0.4453804792,Pass,Pass,0.5025501373,0.4798400900,Pass,Pass
 Warmup Convergence Information,OFFICES_ZN_1_FLR_1,RunPeriod: RUNPERIOD 1,0.2707834860,0.3881703228,Pass,Pass,0.4794221965,0.5385445918,Pass,Pass
! <Program Control Information:Threads/Parallel Sims>, Threading Supported,Maximum Number of Threads, Env Set Threads (OMP_NUM_THREADS), EP Env Set Threads (EP_OMP_NUM_THREADS), IDF Set Threads, Number of Threads Used (Interior Radiant Exchange), Number Nominal Surfaces, Number Parallel Sims
Program Control:Threads/Parallel Sims, No,1, N/A, N/A, N/A, N/A, N/A, N/A
End of Data
