Program Version,EnergyPlus, Version 9.2.0-921312fa1d, YMD=2020.12.22 17:48
! <Version>, Version ID
 Version, 9.2
! <Timesteps per Hour>, #TimeSteps, Minutes per TimeStep {minutes}
 Timesteps per Hour,  6, 10
! <System Convergence Limits>, Minimum System TimeStep {minutes}, Max HVAC Iterations, Minimum Plant Iterations, Maximum Plant Iterations
 System Convergence Limits, 2, 25, 2, 8
! <Simulation Control>, Do Zone Sizing, Do System Sizing, Do Plant Sizing, Do Design Days, Do Weather Simulation, Do HVAC Sizing Simulation
 Simulation Control, Yes, Yes, Yes, No, Yes, No
! <Output Reporting Tolerances>, Tolerance for Time Heating Setpoint Not Met, Tolerance for Zone Cooling Setpoint Not Met Time
 Output Reporting Tolerances, 0.556, 0.556, 
! <Site:GroundTemperature:BuildingSurface>,Jan{C},Feb{C},Mar{C},Apr{C},May{C},Jun{C},Jul{C},Aug{C},Sep{C},Oct{C},Nov{C},Dec{C}
 Site:GroundTemperature:BuildingSurface,  19.53,  19.50,  19.54,  19.60,  20.00,  21.64,  22.23,  22.38,  21.45,  20.12,  19.80,  19.63
! <Site:GroundTemperature:FCfactorMethod>,Jan{C},Feb{C},Mar{C},Apr{C},May{C},Jun{C},Jul{C},Aug{C},Sep{C},Oct{C},Nov{C},Dec{C}
 Site:GroundTemperature:FCfactorMethod,  -1.89,  -3.06,  -0.99,   2.23,  10.68,  17.20,  21.60,  22.94,  20.66,  15.60,   8.83,   2.56
! <Site:GroundTemperature:Shallow>,Jan{C},Feb{C},Mar{C},Apr{C},May{C},Jun{C},Jul{C},Aug{C},Sep{C},Oct{C},Nov{C},Dec{C}
 Site:GroundTemperature:Shallow,  13.00,  13.00,  13.00,  13.00,  13.00,  13.00,  13.00,  13.00,  13.00,  13.00,  13.00,  13.00
! <Site:GroundTemperature:Deep>,Jan{C},Feb{C},Mar{C},Apr{C},May{C},Jun{C},Jul{C},Aug{C},Sep{C},Oct{C},Nov{C},Dec{C}
 Site:GroundTemperature:Deep,  16.00,  16.00,  16.00,  16.00,  16.00,  16.00,  16.00,  16.00,  16.00,  16.00,  16.00,  16.00
! <Site:GroundReflectance>,Jan{dimensionless},Feb{dimensionless},Mar{dimensionless},Apr{dimensionless},May{dimensionless},Jun{dimensionless},Jul{dimensionless},Aug{dimensionless},Sep{dimensionless},Oct{dimensionless},Nov{dimensionless},Dec{dimensionless}
 Site:GroundReflectance,  0.20,  0.20,  0.20,  0.20,  0.20,  0.20,  0.20,  0.20,  0.20,  0.20,  0.20,  0.20
! <Site:GroundReflectance:SnowModifier>, Normal, Daylighting {dimensionless}
 Site:GroundReflectance:SnowModifier,   1.000,   1.000
! <Site:GroundReflectance:Snow>,Jan{dimensionless},Feb{dimensionless},Mar{dimensionless},Apr{dimensionless},May{dimensionless},Jun{dimensionless},Jul{dimensionless},Aug{dimensionless},Sep{dimensionless},Oct{dimensionless},Nov{dimensionless},Dec{dimensionless}
 Site:GroundReflectance:Snow,  0.20,  0.20,  0.20,  0.20,  0.20,  0.20,  0.20,  0.20,  0.20,  0.20,  0.20,  0.20
! <Site:GroundReflectance:Snow:Daylighting>,Jan{dimensionless},Feb{dimensionless},Mar{dimensionless},Apr{dimensionless},May{dimensionless},Jun{dimensionless},Jul{dimensionless},Aug{dimensionless},Sep{dimensionless},Oct{dimensionless},Nov{dimensionless},Dec{dimensionless}
 Site:GroundReflectance:Snow:Daylighting,  0.20,  0.20,  0.20,  0.20,  0.20,  0.20,  0.20,  0.20,  0.20,  0.20,  0.20,  0.20
! <Environment:Weather Station>,Wind Sensor Height Above Ground {m},Wind Speed Profile Exponent {},Wind Speed Profile Boundary Layer Thickness {m},Air Temperature Sensor Height Above Ground {m},Wind Speed Modifier Coefficient-Internal,Temperature Modifier Coefficient-Internal
Environment:Weather Station,10.000,0.140,270.000,1.500,1.586,9.750E-003
! <Site:Location>, Location Name, Latitude {N+/S- Deg}, Longitude {E+/W- Deg},  Time Zone Number {GMT+/-}, Elevation {m},  Standard Pressure at Elevation {Pa}, Standard RhoAir at Elevation
Site:Location,Chicago Ohare Intl Ap IL USA TMY3 WMO#=725300,41.98,-87.92,-6.00,201.00,98934,1.1759
! <Site Water Mains Temperature Information>,Calculation Method{},Water Mains Temperature Schedule Name{},Annual Average Outdoor Air Temperature{C},Maximum Difference In Monthly Average Outdoor Air Temperatures{deltaC},Fixed Default Water Mains Temperature{C}
Site Water Mains Temperature Information,Correlation,NA,9.69,28.10,NA
! Schedule Details Report=Hourly =====================
! <ScheduleType>,Name,Limited? {Yes/No},Minimum,Maximum,Continuous? {Yes/No - Discrete}
! <DaySchedule>,Name,ScheduleType,Interpolated {Yes/No},Time (HH:MM) =>,01:00,02:00,03:00,04:00,05:00,06:00,07:00,08:00,09:00,10:00,11:00,12:00,13:00,14:00,15:00,16:00,17:00,18:00,19:00,20:00,21:00,22:00,23:00,24:00
! <WeekSchedule>,Name,Sunday,Monday,Tuesday,Wednesday,Thursday,Friday,Saturday,Holiday,SummerDesignDay,WinterDesignDay,CustomDay1,CustomDay2
! <Schedule>,Name,ScheduleType,{Until Date,WeekSchedule}** Repeated until Dec 31
ScheduleTypeLimits,ANY NUMBER,No,N/A,N/A,N/A
ScheduleTypeLimits,FRACTION,Average,0.00,1.00,Yes
ScheduleTypeLimits,TEMPERATURE,Average,-60.00,200.00,Yes
ScheduleTypeLimits,ON/OFF,Average,0,1,No
ScheduleTypeLimits,CONTROL TYPE,Average,0,4,No
ScheduleTypeLimits,HUMIDITY,Average,10.00,90.00,Yes
ScheduleTypeLimits,NUMBER,No,N/A,N/A,N/A
DaySchedule,ALWAYS_ON_dy_1,ON/OFF,No,Values:,1.00,1.00,1.00,1.00,1.00,1.00,1.00,1.00,1.00,1.00,1.00,1.00,1.00,1.00,1.00,1.00,1.00,1.00,1.00,1.00,1.00,1.00,1.00,1.00
DaySchedule,BLDG_ELEVATORS_dy_1,FRACTION,No,Values:,5.00E-002,5.00E-002,5.00E-002,5.00E-002,0.10,0.20,0.40,0.50,0.50,0.35,0.15,0.15,0.15,0.15,0.15,0.15,0.35,0.50,0.50,0.40,0.40,0.30,0.20,0.10
DaySchedule,INFIL_QUARTER_ON_SCH_dy_1,FRACTION,No,Values:,1.00,1.00,1.00,1.00,1.00,1.00,0.25,0.25,0.25,0.25,0.25,0.25,0.25,0.25,0.25,0.25,0.25,0.25,0.25,0.25,0.25,0.25,1.00,1.00
DaySchedule,INFIL_QUARTER_ON_SCH_dy_2,FRACTION,No,Values:,1.00,1.00,1.00,1.00,1.00,1.00,0.25,0.25,0.25,0.25,0.25,0.25,0.25,0.25,0.25,0.25,0.25,0.25,1.00,1.00,1.00,1.00,1.00,1.00
DaySchedule,INFIL_QUARTER_ON_SCH_dy_3,FRACTION,No,Values:,1.00,1.00,1.00,1.00,1.00,1.00,1.00,1.00,1.00,1.00,1.00,1.00,1.00,1.00,1.00,1.00,1.00,1.00,1.00,1.00,1.00,1.00,1.00,1.00
DaySchedule,BLDG_OCC_SCH_dy_1,FRACTION,No,Values:,0.00,0.00,0.00,0.00,0.00,0.00,1.00,1.00,1.00,1.00,1.00,1.00,1.00,1.00,1.00,1.00,1.00,1.00,1.00,1.00,1.00,1.00,5.00E-002,5.00E-002
DaySchedule,BLDG_OCC_SCH_dy_2,FRACTION,No,Values:,0.00,0.00,0.00,0.00,0.00,0.00,0.10,0.20,0.95,0.95,0.95,0.95,0.50,0.95,0.95,0.95,0.95,0.70,0.40,0.40,0.10,0.10,5.00E-002,5.00E-002
DaySchedule,BLDG_OCC_SCH_dy_3,FRACTION,No,Values:,0.00,0.00,0.00,0.00,0.00,0.00,0.10,0.10,0.50,0.50,0.50,0.50,0.50,0.50,0.10,0.10,0.10,0.00,0.00,0.00,0.00,0.00,0.00,0.00
DaySchedule,BLDG_OCC_SCH_dy_4,FRACTION,No,Values:,0.00,0.00,0.00,0.00,0.00,0.00,0.00,0.00,0.00,0.00,0.00,0.00,0.00,0.00,0.00,0.00,0.00,0.00,0.00,0.00,0.00,0.00,0.00,0.00
DaySchedule,BLDG_LIGHT_SCH_dy_1,FRACTION,No,Values:,5.00E-002,5.00E-002,5.00E-002,5.00E-002,5.00E-002,0.10,0.10,0.30,0.90,0.90,0.90,0.90,0.90,0.90,0.90,0.90,0.90,0.70,0.50,0.50,0.30,0.30,0.10,5.00E-002
DaySchedule,BLDG_LIGHT_SCH_dy_2,FRACTION,No,Values:,5.00E-002,5.00E-002,5.00E-002,5.00E-002,5.00E-002,5.00E-002,0.10,0.10,0.50,0.50,0.50,0.50,0.50,0.50,0.15,0.15,0.15,5.00E-002,5.00E-002,5.00E-002,5.00E-002,5.00E-002,5.00E-002,5.00E-002
DaySchedule,BLDG_LIGHT_SCH_dy_3,FRACTION,No,Values:,1.00,1.00,1.00,1.00,1.00,1.00,1.00,1.00,1.00,1.00,1.00,1.00,1.00,1.00,1.00,1.00,1.00,1.00,1.00,1.00,1.00,1.00,1.00,1.00
DaySchedule,BLDG_LIGHT_SCH_dy_4,FRACTION,No,Values:,0.00,0.00,0.00,0.00,0.00,0.00,0.00,0.00,0.00,0.00,0.00,0.00,0.00,0.00,0.00,0.00,0.00,0.00,0.00,0.00,0.00,0.00,0.00,0.00
DaySchedule,BLDG_LIGHT_SCH_dy_5,FRACTION,No,Values:,5.00E-002,5.00E-002,5.00E-002,5.00E-002,5.00E-002,5.00E-002,5.00E-002,5.00E-002,5.00E-002,5.00E-002,5.00E-002,5.00E-002,5.00E-002,5.00E-002,5.00E-002,5.00E-002,5.00E-002,5.00E-002,5.00E-002,5.00E-002,5.00E-002,5.00E-002,5.00E-002,5.00E-002
DaySchedule,BLDG_EQUIP_SCH_dy_1,FRACTION,No,Values:,0.40,0.40,0.40,0.40,0.40,0.40,0.40,0.40,0.90,0.90,0.90,0.90,0.80,0.90,0.90,0.90,0.90,0.80,0.60,0.60,0.50,0.50,0.40,0.40
DaySchedule,BLDG_EQUIP_SCH_dy_2,FRACTION,No,Values:,0.30,0.30,0.30,0.30,0.30,0.30,0.40,0.40,0.50,0.50,0.50,0.50,0.50,0.50,0.35,0.35,0.35,0.30,0.30,0.30,0.30,0.30,0.30,0.30
DaySchedule,BLDG_EQUIP_SCH_dy_3,FRACTION,No,Values:,1.00,1.00,1.00,1.00,1.00,1.00,1.00,1.00,1.00,1.00,1.00,1.00,1.00,1.00,1.00,1.00,1.00,1.00,1.00,1.00,1.00,1.00,1.00,1.00
DaySchedule,BLDG_EQUIP_SCH_dy_4,FRACTION,No,Values:,0.00,0.00,0.00,0.00,0.00,0.00,0.00,0.00,0.00,0.00,0.00,0.00,0.00,0.00,0.00,0.00,0.00,0.00,0.00,0.00,0.00,0.00,0.00,0.00
DaySchedule,BLDG_EQUIP_SCH_dy_5,FRACTION,No,Values:,0.30,0.30,0.30,0.30,0.30,0.30,0.30,0.30,0.30,0.30,0.30,0.30,0.30,0.30,0.30,0.30,0.30,0.30,0.30,0.30,0.30,0.30,0.30,0.30
DaySchedule,ACTIVITY_SCH_dy_1,ANY NUMBER,No,Values:,120.00,120.00,120.00,120.00,120.00,120.00,120.00,120.00,120.00,120.00,120.00,120.00,120.00,120.00,120.00,120.00,120.00,120.00,120.00,120.00,120.00,120.00,120.00,120.00
DaySchedule,WORK_EFF_SCH_dy_1,FRACTION,No,Values:,0.00,0.00,0.00,0.00,0.00,0.00,0.00,0.00,0.00,0.00,0.00,0.00,0.00,0.00,0.00,0.00,0.00,0.00,0.00,0.00,0.00,0.00,0.00,0.00
DaySchedule,AIR_VELO_SCH_dy_1,ANY NUMBER,No,Values:,0.20,0.20,0.20,0.20,0.20,0.20,0.20,0.20,0.20,0.20,0.20,0.20,0.20,0.20,0.20,0.20,0.20,0.20,0.20,0.20,0.20,0.20,0.20,0.20
DaySchedule,CLOTHING_SCH_dy_1,ANY NUMBER,No,Values:,1.00,1.00,1.00,1.00,1.00,1.00,1.00,1.00,1.00,1.00,1.00,1.00,1.00,1.00,1.00,1.00,1.00,1.00,1.00,1.00,1.00,1.00,1.00,1.00
DaySchedule,CLOTHING_SCH_dy_2,ANY NUMBER,No,Values:,0.50,0.50,0.50,0.50,0.50,0.50,0.50,0.50,0.50,0.50,0.50,0.50,0.50,0.50,0.50,0.50,0.50,0.50,0.50,0.50,0.50,0.50,0.50,0.50
DaySchedule,CLOTHING_SCH_dy_3,ANY NUMBER,No,Values:,1.00,1.00,1.00,1.00,1.00,1.00,1.00,1.00,1.00,1.00,1.00,1.00,1.00,1.00,1.00,1.00,1.00,1.00,1.00,1.00,1.00,1.00,1.00,1.00
DaySchedule,CLGSETP_SCH_dy_1,TEMPERATURE,No,Values:,26.70,26.70,26.70,26.70,26.70,26.70,24.00,24.00,24.00,24.00,24.00,24.00,24.00,24.00,24.00,24.00,24.00,24.00,24.00,24.00,24.00,24.00,26.70,26.70
DaySchedule,CLGSETP_SCH_dy_2,TEMPERATURE,No,Values:,26.70,26.70,26.70,26.70,26.70,26.70,24.00,24.00,24.00,24.00,24.00,24.00,24.00,24.00,24.00,24.00,24.00,24.00,26.70,26.70,26.70,26.70,26.70,26.70
DaySchedule,CLGSETP_SCH_dy_3,TEMPERATURE,No,Values:,26.70,26.70,26.70,26.70,26.70,26.70,26.70,26.70,26.70,26.70,26.70,26.70,26.70,26.70,26.70,26.70,26.70,26.70,26.70,26.70,26.70,26.70,26.70,26.70
DaySchedule,CLGSETP_SCH_dy_4,TEMPERATURE,No,Values:,26.70,26.70,26.70,26.70,26.70,26.70,26.70,26.70,26.70,26.70,26.70,26.70,26.70,26.70,26.70,26.70,26.70,26.70,26.70,26.70,26.70,26.70,26.70,26.70
DaySchedule,HTGSETP_SCH_dy_1,TEMPERATURE,No,Values:,15.60,15.60,15.60,15.60,15.60,15.60,21.00,21.00,21.00,21.00,21.00,21.00,21.00,21.00,21.00,21.00,21.00,21.00,21.00,21.00,21.00,21.00,15.60,15.60
DaySchedule,HTGSETP_SCH_dy_2,TEMPERATURE,No,Values:,15.60,15.60,15.60,15.60,15.60,15.60,15.60,15.60,15.60,15.60,15.60,15.60,15.60,15.60,15.60,15.60,15.60,15.60,15.60,15.60,15.60,15.60,15.60,15.60
DaySchedule,HTGSETP_SCH_dy_3,TEMPERATURE,No,Values:,15.60,15.60,15.60,15.60,15.60,15.60,21.00,21.00,21.00,21.00,21.00,21.00,21.00,21.00,21.00,21.00,21.00,21.00,15.60,15.60,15.60,15.60,15.60,15.60
DaySchedule,HTGSETP_SCH_dy_4,TEMPERATURE,No,Values:,21.00,21.00,21.00,21.00,21.00,21.00,21.00,21.00,21.00,21.00,21.00,21.00,21.00,21.00,21.00,21.00,21.00,21.00,21.00,21.00,21.00,21.00,21.00,21.00
DaySchedule,HTGSETP_SCH_dy_5,TEMPERATURE,No,Values:,15.60,15.60,15.60,15.60,15.60,15.60,15.60,15.60,15.60,15.60,15.60,15.60,15.60,15.60,15.60,15.60,15.60,15.60,15.60,15.60,15.60,15.60,15.60,15.60
DaySchedule,SEASONAL-RESET-SUPPLY-AIR-TEMP-SCH_dy_1,TEMPERATURE,No,Values:,12.80,12.80,12.80,12.80,12.80,12.80,12.80,12.80,12.80,12.80,12.80,12.80,12.80,12.80,12.80,12.80,12.80,12.80,12.80,12.80,12.80,12.80,12.80,12.80
DaySchedule,MINOA_MOTORIZEDDAMPER_SCHED_dy_1,FRACTION,No,Values:,0.00,0.00,0.00,0.00,0.00,0.00,0.00,1.00,1.00,1.00,1.00,1.00,1.00,1.00,1.00,1.00,1.00,1.00,1.00,1.00,1.00,1.00,0.00,0.00
DaySchedule,MINOA_MOTORIZEDDAMPER_SCHED_dy_2,FRACTION,No,Values:,0.00,0.00,0.00,0.00,0.00,0.00,0.00,1.00,1.00,1.00,1.00,1.00,1.00,1.00,1.00,1.00,1.00,1.00,0.00,0.00,0.00,0.00,0.00,0.00
DaySchedule,MINOA_MOTORIZEDDAMPER_SCHED_dy_3,FRACTION,No,Values:,0.00,0.00,0.00,0.00,0.00,0.00,0.00,0.00,0.00,0.00,0.00,0.00,0.00,0.00,0.00,0.00,0.00,0.00,0.00,0.00,0.00,0.00,0.00,0.00
DaySchedule,DUAL ZONE CONTROL TYPE SCHED_dy_1,CONTROL TYPE,No,Values:,4.00,4.00,4.00,4.00,4.00,4.00,4.00,4.00,4.00,4.00,4.00,4.00,4.00,4.00,4.00,4.00,4.00,4.00,4.00,4.00,4.00,4.00,4.00,4.00
DaySchedule,HVACOPERATIONSCHD_dy_1,ON/OFF,No,Values:,0.00,0.00,0.00,0.00,0.00,0.00,1.00,1.00,1.00,1.00,1.00,1.00,1.00,1.00,1.00,1.00,1.00,1.00,1.00,1.00,1.00,1.00,0.00,0.00
DaySchedule,HVACOPERATIONSCHD_dy_2,ON/OFF,No,Values:,0.00,0.00,0.00,0.00,0.00,0.00,1.00,1.00,1.00,1.00,1.00,1.00,1.00,1.00,1.00,1.00,1.00,1.00,0.00,0.00,0.00,0.00,0.00,0.00
DaySchedule,HVACOPERATIONSCHD_dy_3,ON/OFF,No,Values:,0.00,0.00,0.00,0.00,0.00,0.00,0.00,0.00,0.00,0.00,0.00,0.00,0.00,0.00,0.00,0.00,0.00,0.00,0.00,0.00,0.00,0.00,0.00,0.00
DaySchedule,CW-LOOP-TEMP-SCHEDULE_dy_1,TEMPERATURE,No,Values:,6.70,6.70,6.70,6.70,6.70,6.70,6.70,6.70,6.70,6.70,6.70,6.70,6.70,6.70,6.70,6.70,6.70,6.70,6.70,6.70,6.70,6.70,6.70,6.70
DaySchedule,HW-LOOP-TEMP-SCHEDULE_dy_1,TEMPERATURE,No,Values:,82.20,82.20,82.20,82.20,82.20,82.20,82.20,82.20,82.20,82.20,82.20,82.20,82.20,82.20,82.20,82.20,82.20,82.20,82.20,82.20,82.20,82.20,82.20,82.20
DaySchedule,BLDG_SWH_SCH_dy_1,FRACTION,No,Values:,5.00E-002,5.00E-002,5.00E-002,5.00E-002,5.00E-002,8.00E-002,7.00E-002,0.19,0.35,0.38,0.39,0.47,0.57,0.54,0.34,0.33,0.44,0.26,0.21,0.15,0.17,8.00E-002,5.00E-002,5.00E-002
DaySchedule,BLDG_SWH_SCH_dy_2,FRACTION,No,Values:,5.00E-002,5.00E-002,5.00E-002,5.00E-002,5.00E-002,8.00E-002,7.00E-002,0.11,0.15,0.21,0.19,0.23,0.20,0.19,0.15,0.13,0.14,7.00E-002,7.00E-002,7.00E-002,7.00E-002,9.00E-002,5.00E-002,5.00E-002
DaySchedule,BLDG_SWH_SCH_dy_3,FRACTION,No,Values:,4.00E-002,4.00E-002,4.00E-002,4.00E-002,4.00E-002,7.00E-002,4.00E-002,4.00E-002,4.00E-002,4.00E-002,4.00E-002,6.00E-002,6.00E-002,9.00E-002,6.00E-002,4.00E-002,4.00E-002,4.00E-002,4.00E-002,4.00E-002,4.00E-002,7.00E-002,4.00E-002,4.00E-002
DaySchedule,WATER EQUIPMENT LATENT FRACT SCHED_dy_1,FRACTION,No,Values:,5.00E-002,5.00E-002,5.00E-002,5.00E-002,5.00E-002,5.00E-002,5.00E-002,5.00E-002,5.00E-002,5.00E-002,5.00E-002,5.00E-002,5.00E-002,5.00E-002,5.00E-002,5.00E-002,5.00E-002,5.00E-002,5.00E-002,5.00E-002,5.00E-002,5.00E-002,5.00E-002,5.00E-002
DaySchedule,WATER EQUIPMENT SENSIBLE FRACT SCHED_dy_1,FRACTION,No,Values:,0.20,0.20,0.20,0.20,0.20,0.20,0.20,0.20,0.20,0.20,0.20,0.20,0.20,0.20,0.20,0.20,0.20,0.20,0.20,0.20,0.20,0.20,0.20,0.20
DaySchedule,SWHSYS1 WATER HEATER AMBIENT TEMPERATURE SCHEDULE NAME_dy_1,TEMPERATURE,No,Values:,22.00,22.00,22.00,22.00,22.00,22.00,22.00,22.00,22.00,22.00,22.00,22.00,22.00,22.00,22.00,22.00,22.00,22.00,22.00,22.00,22.00,22.00,22.00,22.00
DaySchedule,WATER EQUIPMENT TEMP SCHED_dy_1,TEMPERATURE,No,Values:,43.30,43.30,43.30,43.30,43.30,43.30,43.30,43.30,43.30,43.30,43.30,43.30,43.30,43.30,43.30,43.30,43.30,43.30,43.30,43.30,43.30,43.30,43.30,43.30
DaySchedule,WATER EQUIPMENT HOT SUPPLY TEMP SCHED_dy_1,TEMPERATURE,No,Values:,43.30,43.30,43.30,43.30,43.30,43.30,43.30,43.30,43.30,43.30,43.30,43.30,43.30,43.30,43.30,43.30,43.30,43.30,43.30,43.30,43.30,43.30,43.30,43.30
DaySchedule,SWHSYS1 WATER HEATER SETPOINT TEMPERATURE SCHEDULE NAME_dy_1,TEMPERATURE,No,Values:,60.00,60.00,60.00,60.00,60.00,60.00,60.00,60.00,60.00,60.00,60.00,60.00,60.00,60.00,60.00,60.00,60.00,60.00,60.00,60.00,60.00,60.00,60.00,60.00
DaySchedule,SWHSYS1-LOOP-TEMP-SCHEDULE_dy_1,TEMPERATURE,No,Values:,60.00,60.00,60.00,60.00,60.00,60.00,60.00,60.00,60.00,60.00,60.00,60.00,60.00,60.00,60.00,60.00,60.00,60.00,60.00,60.00,60.00,60.00,60.00,60.00
Schedule:Week:Daily,ALWAYS_ON_wk_1,ALWAYS_ON_dy_1,ALWAYS_ON_dy_1,ALWAYS_ON_dy_1,ALWAYS_ON_dy_1,ALWAYS_ON_dy_1,ALWAYS_ON_dy_1,ALWAYS_ON_dy_1,ALWAYS_ON_dy_1,ALWAYS_ON_dy_1,ALWAYS_ON_dy_1,ALWAYS_ON_dy_1,ALWAYS_ON_dy_1
Schedule:Week:Daily,BLDG_ELEVATORS_wk_1,BLDG_ELEVATORS_dy_1,BLDG_ELEVATORS_dy_1,BLDG_ELEVATORS_dy_1,BLDG_ELEVATORS_dy_1,BLDG_ELEVATORS_dy_1,BLDG_ELEVATORS_dy_1,BLDG_ELEVATORS_dy_1,BLDG_ELEVATORS_dy_1,BLDG_ELEVATORS_dy_1,BLDG_ELEVATORS_dy_1,BLDG_ELEVATORS_dy_1,BLDG_ELEVATORS_dy_1
Schedule:Week:Daily,INFIL_QUARTER_ON_SCH_wk_1,INFIL_QUARTER_ON_SCH_dy_3,INFIL_QUARTER_ON_SCH_dy_1,INFIL_QUARTER_ON_SCH_dy_1,INFIL_QUARTER_ON_SCH_dy_1,INFIL_QUARTER_ON_SCH_dy_1,INFIL_QUARTER_ON_SCH_dy_1,INFIL_QUARTER_ON_SCH_dy_2,INFIL_QUARTER_ON_SCH_dy_3,INFIL_QUARTER_ON_SCH_dy_1,INFIL_QUARTER_ON_SCH_dy_2,INFIL_QUARTER_ON_SCH_dy_3,INFIL_QUARTER_ON_SCH_dy_3
Schedule:Week:Daily,BLDG_OCC_SCH_wk_1,BLDG_OCC_SCH_dy_4,BLDG_OCC_SCH_dy_2,BLDG_OCC_SCH_dy_2,BLDG_OCC_SCH_dy_2,BLDG_OCC_SCH_dy_2,BLDG_OCC_SCH_dy_2,BLDG_OCC_SCH_dy_3,BLDG_OCC_SCH_dy_4,BLDG_OCC_SCH_dy_1,BLDG_OCC_SCH_dy_4,BLDG_OCC_SCH_dy_4,BLDG_OCC_SCH_dy_4
Schedule:Week:Daily,BLDG_LIGHT_SCH_wk_1,BLDG_LIGHT_SCH_dy_5,BLDG_LIGHT_SCH_dy_1,BLDG_LIGHT_SCH_dy_1,BLDG_LIGHT_SCH_dy_1,BLDG_LIGHT_SCH_dy_1,BLDG_LIGHT_SCH_dy_1,BLDG_LIGHT_SCH_dy_2,BLDG_LIGHT_SCH_dy_5,BLDG_LIGHT_SCH_dy_3,BLDG_LIGHT_SCH_dy_4,BLDG_LIGHT_SCH_dy_5,BLDG_LIGHT_SCH_dy_5
Schedule:Week:Daily,BLDG_EQUIP_SCH_wk_1,BLDG_EQUIP_SCH_dy_5,BLDG_EQUIP_SCH_dy_1,BLDG_EQUIP_SCH_dy_1,BLDG_EQUIP_SCH_dy_1,BLDG_EQUIP_SCH_dy_1,BLDG_EQUIP_SCH_dy_1,BLDG_EQUIP_SCH_dy_2,BLDG_EQUIP_SCH_dy_5,BLDG_EQUIP_SCH_dy_3,BLDG_EQUIP_SCH_dy_4,BLDG_EQUIP_SCH_dy_5,BLDG_EQUIP_SCH_dy_5
Schedule:Week:Daily,ACTIVITY_SCH_wk_1,ACTIVITY_SCH_dy_1,ACTIVITY_SCH_dy_1,ACTIVITY_SCH_dy_1,ACTIVITY_SCH_dy_1,ACTIVITY_SCH_dy_1,ACTIVITY_SCH_dy_1,ACTIVITY_SCH_dy_1,ACTIVITY_SCH_dy_1,ACTIVITY_SCH_dy_1,ACTIVITY_SCH_dy_1,ACTIVITY_SCH_dy_1,ACTIVITY_SCH_dy_1
Schedule:Week:Daily,WORK_EFF_SCH_wk_1,WORK_EFF_SCH_dy_1,WORK_EFF_SCH_dy_1,WORK_EFF_SCH_dy_1,WORK_EFF_SCH_dy_1,WORK_EFF_SCH_dy_1,WORK_EFF_SCH_dy_1,WORK_EFF_SCH_dy_1,WORK_EFF_SCH_dy_1,WORK_EFF_SCH_dy_1,WORK_EFF_SCH_dy_1,WORK_EFF_SCH_dy_1,WORK_EFF_SCH_dy_1
Schedule:Week:Daily,AIR_VELO_SCH_wk_1,AIR_VELO_SCH_dy_1,AIR_VELO_SCH_dy_1,AIR_VELO_SCH_dy_1,AIR_VELO_SCH_dy_1,AIR_VELO_SCH_dy_1,AIR_VELO_SCH_dy_1,AIR_VELO_SCH_dy_1,AIR_VELO_SCH_dy_1,AIR_VELO_SCH_dy_1,AIR_VELO_SCH_dy_1,AIR_VELO_SCH_dy_1,AIR_VELO_SCH_dy_1
Schedule:Week:Daily,CLOTHING_SCH_wk_1,CLOTHING_SCH_dy_1,CLOTHING_SCH_dy_1,CLOTHING_SCH_dy_1,CLOTHING_SCH_dy_1,CLOTHING_SCH_dy_1,CLOTHING_SCH_dy_1,CLOTHING_SCH_dy_1,CLOTHING_SCH_dy_1,CLOTHING_SCH_dy_1,CLOTHING_SCH_dy_1,CLOTHING_SCH_dy_1,CLOTHING_SCH_dy_1
Schedule:Week:Daily,CLOTHING_SCH_wk_2,CLOTHING_SCH_dy_2,CLOTHING_SCH_dy_2,CLOTHING_SCH_dy_2,CLOTHING_SCH_dy_2,CLOTHING_SCH_dy_2,CLOTHING_SCH_dy_2,CLOTHING_SCH_dy_2,CLOTHING_SCH_dy_2,CLOTHING_SCH_dy_2,CLOTHING_SCH_dy_2,CLOTHING_SCH_dy_2,CLOTHING_SCH_dy_2
Schedule:Week:Daily,CLOTHING_SCH_wk_3,CLOTHING_SCH_dy_3,CLOTHING_SCH_dy_3,CLOTHING_SCH_dy_3,CLOTHING_SCH_dy_3,CLOTHING_SCH_dy_3,CLOTHING_SCH_dy_3,CLOTHING_SCH_dy_3,CLOTHING_SCH_dy_3,CLOTHING_SCH_dy_3,CLOTHING_SCH_dy_3,CLOTHING_SCH_dy_3,CLOTHING_SCH_dy_3
Schedule:Week:Daily,CLGSETP_SCH_wk_1,CLGSETP_SCH_dy_4,CLGSETP_SCH_dy_1,CLGSETP_SCH_dy_1,CLGSETP_SCH_dy_1,CLGSETP_SCH_dy_1,CLGSETP_SCH_dy_1,CLGSETP_SCH_dy_2,CLGSETP_SCH_dy_4,CLGSETP_SCH_dy_1,CLGSETP_SCH_dy_3,CLGSETP_SCH_dy_4,CLGSETP_SCH_dy_4
Schedule:Week:Daily,HTGSETP_SCH_wk_1,HTGSETP_SCH_dy_5,HTGSETP_SCH_dy_1,HTGSETP_SCH_dy_1,HTGSETP_SCH_dy_1,HTGSETP_SCH_dy_1,HTGSETP_SCH_dy_1,HTGSETP_SCH_dy_3,HTGSETP_SCH_dy_5,HTGSETP_SCH_dy_2,HTGSETP_SCH_dy_4,HTGSETP_SCH_dy_5,HTGSETP_SCH_dy_5
Schedule:Week:Daily,SEASONAL-RESET-SUPPLY-AIR-TEMP-SCH_wk_1,SEASONAL-RESET-SUPPLY-AIR-TEMP-SCH_dy_1,SEASONAL-RESET-SUPPLY-AIR-TEMP-SCH_dy_1,SEASONAL-RESET-SUPPLY-AIR-TEMP-SCH_dy_1,SEASONAL-RESET-SUPPLY-AIR-TEMP-SCH_dy_1,SEASONAL-RESET-SUPPLY-AIR-TEMP-SCH_dy_1,SEASONAL-RESET-SUPPLY-AIR-TEMP-SCH_dy_1,SEASONAL-RESET-SUPPLY-AIR-TEMP-SCH_dy_1,SEASONAL-RESET-SUPPLY-AIR-TEMP-SCH_dy_1,SEASONAL-RESET-SUPPLY-AIR-TEMP-SCH_dy_1,SEASONAL-RESET-SUPPLY-AIR-TEMP-SCH_dy_1,SEASONAL-RESET-SUPPLY-AIR-TEMP-SCH_dy_1,SEASONAL-RESET-SUPPLY-AIR-TEMP-SCH_dy_1
Schedule:Week:Daily,MINOA_MOTORIZEDDAMPER_SCHED_wk_1,MINOA_MOTORIZEDDAMPER_SCHED_dy_3,MINOA_MOTORIZEDDAMPER_SCHED_dy_1,MINOA_MOTORIZEDDAMPER_SCHED_dy_1,MINOA_MOTORIZEDDAMPER_SCHED_dy_1,MINOA_MOTORIZEDDAMPER_SCHED_dy_1,MINOA_MOTORIZEDDAMPER_SCHED_dy_1,MINOA_MOTORIZEDDAMPER_SCHED_dy_2,MINOA_MOTORIZEDDAMPER_SCHED_dy_3,MINOA_MOTORIZEDDAMPER_SCHED_dy_1,MINOA_MOTORIZEDDAMPER_SCHED_dy_2,MINOA_MOTORIZEDDAMPER_SCHED_dy_3,MINOA_MOTORIZEDDAMPER_SCHED_dy_3
Schedule:Week:Daily,DUAL ZONE CONTROL TYPE SCHED_wk_1,DUAL ZONE CONTROL TYPE SCHED_dy_1,DUAL ZONE CONTROL TYPE SCHED_dy_1,DUAL ZONE CONTROL TYPE SCHED_dy_1,DUAL ZONE CONTROL TYPE SCHED_dy_1,DUAL ZONE CONTROL TYPE SCHED_dy_1,DUAL ZONE CONTROL TYPE SCHED_dy_1,DUAL ZONE CONTROL TYPE SCHED_dy_1,DUAL ZONE CONTROL TYPE SCHED_dy_1,DUAL ZONE CONTROL TYPE SCHED_dy_1,DUAL ZONE CONTROL TYPE SCHED_dy_1,DUAL ZONE CONTROL TYPE SCHED_dy_1,DUAL ZONE CONTROL TYPE SCHED_dy_1
Schedule:Week:Daily,HVACOPERATIONSCHD_wk_1,HVACOPERATIONSCHD_dy_3,HVACOPERATIONSCHD_dy_1,HVACOPERATIONSCHD_dy_1,HVACOPERATIONSCHD_dy_1,HVACOPERATIONSCHD_dy_1,HVACOPERATIONSCHD_dy_1,HVACOPERATIONSCHD_dy_2,HVACOPERATIONSCHD_dy_3,HVACOPERATIONSCHD_dy_1,HVACOPERATIONSCHD_dy_2,HVACOPERATIONSCHD_dy_3,HVACOPERATIONSCHD_dy_3
Schedule:Week:Daily,CW-LOOP-TEMP-SCHEDULE_wk_1,CW-LOOP-TEMP-SCHEDULE_dy_1,CW-LOOP-TEMP-SCHEDULE_dy_1,CW-LOOP-TEMP-SCHEDULE_dy_1,CW-LOOP-TEMP-SCHEDULE_dy_1,CW-LOOP-TEMP-SCHEDULE_dy_1,CW-LOOP-TEMP-SCHEDULE_dy_1,CW-LOOP-TEMP-SCHEDULE_dy_1,CW-LOOP-TEMP-SCHEDULE_dy_1,CW-LOOP-TEMP-SCHEDULE_dy_1,CW-LOOP-TEMP-SCHEDULE_dy_1,CW-LOOP-TEMP-SCHEDULE_dy_1,CW-LOOP-TEMP-SCHEDULE_dy_1
Schedule:Week:Daily,HW-LOOP-TEMP-SCHEDULE_wk_1,HW-LOOP-TEMP-SCHEDULE_dy_1,HW-LOOP-TEMP-SCHEDULE_dy_1,HW-LOOP-TEMP-SCHEDULE_dy_1,HW-LOOP-TEMP-SCHEDULE_dy_1,HW-LOOP-TEMP-SCHEDULE_dy_1,HW-LOOP-TEMP-SCHEDULE_dy_1,HW-LOOP-TEMP-SCHEDULE_dy_1,HW-LOOP-TEMP-SCHEDULE_dy_1,HW-LOOP-TEMP-SCHEDULE_dy_1,HW-LOOP-TEMP-SCHEDULE_dy_1,HW-LOOP-TEMP-SCHEDULE_dy_1,HW-LOOP-TEMP-SCHEDULE_dy_1
Schedule:Week:Daily,BLDG_SWH_SCH_wk_1,BLDG_SWH_SCH_dy_3,BLDG_SWH_SCH_dy_1,BLDG_SWH_SCH_dy_1,BLDG_SWH_SCH_dy_1,BLDG_SWH_SCH_dy_1,BLDG_SWH_SCH_dy_1,BLDG_SWH_SCH_dy_2,BLDG_SWH_SCH_dy_3,BLDG_SWH_SCH_dy_1,BLDG_SWH_SCH_dy_2,BLDG_SWH_SCH_dy_3,BLDG_SWH_SCH_dy_3
Schedule:Week:Daily,WATER EQUIPMENT LATENT FRACT SCHED_wk_1,WATER EQUIPMENT LATENT FRACT SCHED_dy_1,WATER EQUIPMENT LATENT FRACT SCHED_dy_1,WATER EQUIPMENT LATENT FRACT SCHED_dy_1,WATER EQUIPMENT LATENT FRACT SCHED_dy_1,WATER EQUIPMENT LATENT FRACT SCHED_dy_1,WATER EQUIPMENT LATENT FRACT SCHED_dy_1,WATER EQUIPMENT LATENT FRACT SCHED_dy_1,WATER EQUIPMENT LATENT FRACT SCHED_dy_1,WATER EQUIPMENT LATENT FRACT SCHED_dy_1,WATER EQUIPMENT LATENT FRACT SCHED_dy_1,WATER EQUIPMENT LATENT FRACT SCHED_dy_1,WATER EQUIPMENT LATENT FRACT SCHED_dy_1
Schedule:Week:Daily,WATER EQUIPMENT SENSIBLE FRACT SCHED_wk_1,WATER EQUIPMENT SENSIBLE FRACT SCHED_dy_1,WATER EQUIPMENT SENSIBLE FRACT SCHED_dy_1,WATER EQUIPMENT SENSIBLE FRACT SCHED_dy_1,WATER EQUIPMENT SENSIBLE FRACT SCHED_dy_1,WATER EQUIPMENT SENSIBLE FRACT SCHED_dy_1,WATER EQUIPMENT SENSIBLE FRACT SCHED_dy_1,WATER EQUIPMENT SENSIBLE FRACT SCHED_dy_1,WATER EQUIPMENT SENSIBLE FRACT SCHED_dy_1,WATER EQUIPMENT SENSIBLE FRACT SCHED_dy_1,WATER EQUIPMENT SENSIBLE FRACT SCHED_dy_1,WATER EQUIPMENT SENSIBLE FRACT SCHED_dy_1,WATER EQUIPMENT SENSIBLE FRACT SCHED_dy_1
Schedule:Week:Daily,SWHSYS1 WATER HEATER AMBIENT TEMPERATURE SCHEDULE NAME_wk_1,SWHSYS1 WATER HEATER AMBIENT TEMPERATURE SCHEDULE NAME_dy_1,SWHSYS1 WATER HEATER AMBIENT TEMPERATURE SCHEDULE NAME_dy_1,SWHSYS1 WATER HEATER AMBIENT TEMPERATURE SCHEDULE NAME_dy_1,SWHSYS1 WATER HEATER AMBIENT TEMPERATURE SCHEDULE NAME_dy_1,SWHSYS1 WATER HEATER AMBIENT TEMPERATURE SCHEDULE NAME_dy_1,SWHSYS1 WATER HEATER AMBIENT TEMPERATURE SCHEDULE NAME_dy_1,SWHSYS1 WATER HEATER AMBIENT TEMPERATURE SCHEDULE NAME_dy_1,SWHSYS1 WATER HEATER AMBIENT TEMPERATURE SCHEDULE NAME_dy_1,SWHSYS1 WATER HEATER AMBIENT TEMPERATURE SCHEDULE NAME_dy_1,SWHSYS1 WATER HEATER AMBIENT TEMPERATURE SCHEDULE NAME_dy_1,SWHSYS1 WATER HEATER AMBIENT TEMPERATURE SCHEDULE NAME_dy_1,SWHSYS1 WATER HEATER AMBIENT TEMPERATURE SCHEDULE NAME_dy_1
Schedule:Week:Daily,WATER EQUIPMENT TEMP SCHED_wk_1,WATER EQUIPMENT TEMP SCHED_dy_1,WATER EQUIPMENT TEMP SCHED_dy_1,WATER EQUIPMENT TEMP SCHED_dy_1,WATER EQUIPMENT TEMP SCHED_dy_1,WATER EQUIPMENT TEMP SCHED_dy_1,WATER EQUIPMENT TEMP SCHED_dy_1,WATER EQUIPMENT TEMP SCHED_dy_1,WATER EQUIPMENT TEMP SCHED_dy_1,WATER EQUIPMENT TEMP SCHED_dy_1,WATER EQUIPMENT TEMP SCHED_dy_1,WATER EQUIPMENT TEMP SCHED_dy_1,WATER EQUIPMENT TEMP SCHED_dy_1
Schedule:Week:Daily,WATER EQUIPMENT HOT SUPPLY TEMP SCHED_wk_1,WATER EQUIPMENT HOT SUPPLY TEMP SCHED_dy_1,WATER EQUIPMENT HOT SUPPLY TEMP SCHED_dy_1,WATER EQUIPMENT HOT SUPPLY TEMP SCHED_dy_1,WATER EQUIPMENT HOT SUPPLY TEMP SCHED_dy_1,WATER EQUIPMENT HOT SUPPLY TEMP SCHED_dy_1,WATER EQUIPMENT HOT SUPPLY TEMP SCHED_dy_1,WATER EQUIPMENT HOT SUPPLY TEMP SCHED_dy_1,WATER EQUIPMENT HOT SUPPLY TEMP SCHED_dy_1,WATER EQUIPMENT HOT SUPPLY TEMP SCHED_dy_1,WATER EQUIPMENT HOT SUPPLY TEMP SCHED_dy_1,WATER EQUIPMENT HOT SUPPLY TEMP SCHED_dy_1,WATER EQUIPMENT HOT SUPPLY TEMP SCHED_dy_1
Schedule:Week:Daily,SWHSYS1 WATER HEATER SETPOINT TEMPERATURE SCHEDULE NAME_wk_1,SWHSYS1 WATER HEATER SETPOINT TEMPERATURE SCHEDULE NAME_dy_1,SWHSYS1 WATER HEATER SETPOINT TEMPERATURE SCHEDULE NAME_dy_1,SWHSYS1 WATER HEATER SETPOINT TEMPERATURE SCHEDULE NAME_dy_1,SWHSYS1 WATER HEATER SETPOINT TEMPERATURE SCHEDULE NAME_dy_1,SWHSYS1 WATER HEATER SETPOINT TEMPERATURE SCHEDULE NAME_dy_1,SWHSYS1 WATER HEATER SETPOINT TEMPERATURE SCHEDULE NAME_dy_1,SWHSYS1 WATER HEATER SETPOINT TEMPERATURE SCHEDULE NAME_dy_1,SWHSYS1 WATER HEATER SETPOINT TEMPERATURE SCHEDULE NAME_dy_1,SWHSYS1 WATER HEATER SETPOINT TEMPERATURE SCHEDULE NAME_dy_1,SWHSYS1 WATER HEATER SETPOINT TEMPERATURE SCHEDULE NAME_dy_1,SWHSYS1 WATER HEATER SETPOINT TEMPERATURE SCHEDULE NAME_dy_1,SWHSYS1 WATER HEATER SETPOINT TEMPERATURE SCHEDULE NAME_dy_1
Schedule:Week:Daily,SWHSYS1-LOOP-TEMP-SCHEDULE_wk_1,SWHSYS1-LOOP-TEMP-SCHEDULE_dy_1,SWHSYS1-LOOP-TEMP-SCHEDULE_dy_1,SWHSYS1-LOOP-TEMP-SCHEDULE_dy_1,SWHSYS1-LOOP-TEMP-SCHEDULE_dy_1,SWHSYS1-LOOP-TEMP-SCHEDULE_dy_1,SWHSYS1-LOOP-TEMP-SCHEDULE_dy_1,SWHSYS1-LOOP-TEMP-SCHEDULE_dy_1,SWHSYS1-LOOP-TEMP-SCHEDULE_dy_1,SWHSYS1-LOOP-TEMP-SCHEDULE_dy_1,SWHSYS1-LOOP-TEMP-SCHEDULE_dy_1,SWHSYS1-LOOP-TEMP-SCHEDULE_dy_1,SWHSYS1-LOOP-TEMP-SCHEDULE_dy_1
Schedule,ALWAYS_ON,ON/OFF,Through Dec 31,ALWAYS_ON_wk_1
Schedule,BLDG_ELEVATORS,FRACTION,Through Dec 31,BLDG_ELEVATORS_wk_1
Schedule,INFIL_QUARTER_ON_SCH,FRACTION,Through Dec 31,INFIL_QUARTER_ON_SCH_wk_1
Schedule,BLDG_OCC_SCH,FRACTION,Through Dec 31,BLDG_OCC_SCH_wk_1
Schedule,BLDG_LIGHT_SCH,FRACTION,Through Dec 31,BLDG_LIGHT_SCH_wk_1
Schedule,BLDG_EQUIP_SCH,FRACTION,Through Dec 31,BLDG_EQUIP_SCH_wk_1
Schedule,ACTIVITY_SCH,ANY NUMBER,Through Dec 31,ACTIVITY_SCH_wk_1
Schedule,WORK_EFF_SCH,FRACTION,Through Dec 31,WORK_EFF_SCH_wk_1
Schedule,AIR_VELO_SCH,ANY NUMBER,Through Dec 31,AIR_VELO_SCH_wk_1
Schedule,CLOTHING_SCH,ANY NUMBER,Through Apr 30,CLOTHING_SCH_wk_1,Through Sep 30,CLOTHING_SCH_wk_2,Through Dec 31,CLOTHING_SCH_wk_3
Schedule,CLGSETP_SCH,TEMPERATURE,Through Dec 31,CLGSETP_SCH_wk_1
Schedule,HTGSETP_SCH,TEMPERATURE,Through Dec 31,HTGSETP_SCH_wk_1
Schedule,SEASONAL-RESET-SUPPLY-AIR-TEMP-SCH,TEMPERATURE,Through Dec 31,SEASONAL-RESET-SUPPLY-AIR-TEMP-SCH_wk_1
Schedule,MINOA_MOTORIZEDDAMPER_SCHED,FRACTION,Through Dec 31,MINOA_MOTORIZEDDAMPER_SCHED_wk_1
Schedule,DUAL ZONE CONTROL TYPE SCHED,CONTROL TYPE,Through Dec 31,DUAL ZONE CONTROL TYPE SCHED_wk_1
Schedule,HVACOPERATIONSCHD,ON/OFF,Through Dec 31,HVACOPERATIONSCHD_wk_1
Schedule,CW-LOOP-TEMP-SCHEDULE,TEMPERATURE,Through Dec 31,CW-LOOP-TEMP-SCHEDULE_wk_1
Schedule,HW-LOOP-TEMP-SCHEDULE,TEMPERATURE,Through Dec 31,HW-LOOP-TEMP-SCHEDULE_wk_1
Schedule,BLDG_SWH_SCH,FRACTION,Through Dec 31,BLDG_SWH_SCH_wk_1
Schedule,WATER EQUIPMENT LATENT FRACT SCHED,FRACTION,Through Dec 31,WATER EQUIPMENT LATENT FRACT SCHED_wk_1
Schedule,WATER EQUIPMENT SENSIBLE FRACT SCHED,FRACTION,Through Dec 31,WATER EQUIPMENT SENSIBLE FRACT SCHED_wk_1
Schedule,SWHSYS1 WATER HEATER AMBIENT TEMPERATURE SCHEDULE NAME,TEMPERATURE,Through Dec 31,SWHSYS1 WATER HEATER AMBIENT TEMPERATURE SCHEDULE NAME_wk_1
Schedule,WATER EQUIPMENT TEMP SCHED,TEMPERATURE,Through Dec 31,WATER EQUIPMENT TEMP SCHED_wk_1
Schedule,WATER EQUIPMENT HOT SUPPLY TEMP SCHED,TEMPERATURE,Through Dec 31,WATER EQUIPMENT HOT SUPPLY TEMP SCHED_wk_1
Schedule,SWHSYS1 WATER HEATER SETPOINT TEMPERATURE SCHEDULE NAME,TEMPERATURE,Through Dec 31,SWHSYS1 WATER HEATER SETPOINT TEMPERATURE SCHEDULE NAME_wk_1
Schedule,SWHSYS1-LOOP-TEMP-SCHEDULE,TEMPERATURE,Through Dec 31,SWHSYS1-LOOP-TEMP-SCHEDULE_wk_1
! <Building Information>, Building Name,North Axis {deg},Terrain,  Loads Convergence Tolerance Value,Temperature Convergence Tolerance Value,  Solar Distribution,Maximum Number of Warmup Days,Minimum Number of Warmup Days
 Building Information,Ref Bldg Large Office Post1980_v1.3_5.0,0.000,City,4.00000E-002,0.20000,FullInteriorAndExterior,25,6
! <Inside Convection Algorithm>, Algorithm {Simple | TARP | CeilingDiffuser | AdaptiveConvectionAlgorithm}
Inside Convection Algorithm,TARP
! <Outside Convection Algorithm>, Algorithm {SimpleCombined | TARP | MoWitt | DOE-2 | AdaptiveConvectionAlgorithm}
Outside Convection Algorithm,DOE-2
! <Sky Radiance Distribution>, Value {Anisotropic}
Sky Radiance Distribution,Anisotropic
! <Zone Air Solution Algorithm>, Value {ThirdOrderBackwardDifference | AnalyticalSolution | EulerMethod}
 Zone Air Solution Algorithm, AnalyticalSolution
! <Zone Air Carbon Dioxide Balance Simulation>, Simulation {Yes/No}, Carbon Dioxide Concentration
 Zone Air Carbon Dioxide Balance Simulation, No,N/A
! <Zone Air Generic Contaminant Balance Simulation>, Simulation {Yes/No}, Generic Contaminant Concentration
 Zone Air Generic Contaminant Balance Simulation, No,N/A
! <Zone Air Mass Flow Balance Simulation>, Enforce Mass Balance, Adjust Zone Mixing, Adjust Zone Infiltration {AddInfiltration | AdjustInfiltration | None}, Infiltration Zones {MixingSourceZonesOnly | AllZones}
 Zone Air Mass Flow Balance Simulation, No,N/A,N/A,N/A
! <HVACSystemRootFindingAlgorithm>, Value {RegulaFalsi | Bisection | BisectionThenRegulaFalsi | RegulaFalsiThenBisection}
 HVACSystemRootFindingAlgorithm, RegulaFalsi
! <Environment:Site Atmospheric Variation>,Wind Speed Profile Exponent {},Wind Speed Profile Boundary Layer Thickness {m},Air Temperature Gradient Coefficient {K/m}
Environment:Site Atmospheric Variation,0.330,460.000,6.500000E-003
! <Surface Geometry>,Starting Corner,Vertex Input Direction,Coordinate System,Daylight Reference Point Coordinate System,Rectangular (Simple) Surface Coordinate System
 Surface Geometry,UpperLeftCorner,Counterclockwise,RelativeCoordinateSystem,RelativeCoordinateSystem,RelativeToZoneOrigin
! <Surface Heat Transfer Algorithm>, Value {CTF - ConductionTransferFunction | EMPD - MoisturePenetrationDepthConductionTransferFunction | CondFD - ConductionFiniteDifference | HAMT - CombinedHeatAndMoistureFiniteElement} - Description,Inside Surface Max Temperature Limit{C}, Surface Convection Coefficient Lower Limit {W/m2-K}, Surface Convection Coefficient Upper Limit {W/m2-K}
Surface Heat Transfer Algorithm, CTF - ConductionTransferFunction,200,0.10,1000.0
! <Shading Summary>, Number of Fixed Detached Shades, Number of Building Detached Shades, Number of Attached Shades
 Shading Summary,0,0,0
! <Zone Summary>, Number of Zones, Number of Zone Surfaces, Number of SubSurfaces
 Zone Summary,19,158,12
! <Zone Information>,Zone Name,North Axis {deg},Origin X-Coordinate {m},Origin Y-Coordinate {m},Origin Z-Coordinate {m},Centroid X-Coordinate {m},Centroid Y-Coordinate {m},Centroid Z-Coordinate {m},Type,Zone Multiplier,Zone List Multiplier,Minimum X {m},Maximum X {m},Minimum Y {m},Maximum Y {m},Minimum Z {m},Maximum Z {m},Ceiling Height {m},Volume {m3},Zone Inside Convection Algorithm {Simple-Detailed-CeilingDiffuser-TrombeWall},Zone Outside Convection Algorithm {Simple-Detailed-Tarp-MoWitt-DOE-2-BLAST}, Floor Area {m2},Exterior Gross Wall Area {m2},Exterior Net Wall Area {m2},Exterior Window Area {m2}, Number of Surfaces, Number of SubSurfaces, Number of Shading SubSurfaces,  Part of Total Building Area
 Zone Information, BASEMENT,0.0,0.00,4.00E-002,0.20,36.55,24.41,-1.02,1,1,1,0.00,73.11,4.00E-002,48.78,-2.24,0.20,2.44,8690.42,TARP,DOE-2,3563.11,0.00,0.00,0.00,10,0,0,Yes
 Zone Information, CORE_BOTTOM,0.0,0.00,0.00,0.00,36.55,24.37,1.37,1,1,1,4.57,68.53,4.57,44.17,0.00,2.74,2.74,6948.69,TARP,DOE-2,2532.32,0.00,0.00,0.00,6,0,0,Yes
 Zone Information, CORE_MID,0.0,0.00,0.00,0.00,36.55,24.37,21.19,1,10,1,4.57,68.53,4.57,44.17,19.82,22.56,2.74,6948.69,TARP,DOE-2,2532.32,0.00,0.00,0.00,6,0,0,Yes
 Zone Information, CORE_TOP,0.0,0.00,0.00,0.00,36.55,24.37,44.97,1,1,1,4.57,68.53,4.57,44.17,43.60,46.34,2.74,6948.69,TARP,DOE-2,2532.32,0.00,0.00,0.00,6,0,0,Yes
 Zone Information, GROUNDFLOOR_PLENUM,0.0,0.00,0.00,0.00,36.55,24.37,3.35,1,1,1,0.00,73.11,0.00,48.74,2.74,3.96,1.22,4344.14,TARP,DOE-2,3563.11,297.11,297.11,0.00,10,0,0,No
 Zone Information, MIDFLOOR_PLENUM,0.0,0.00,0.00,0.00,36.55,24.37,23.17,1,10,1,0.00,73.11,0.00,48.74,22.56,23.78,1.22,4344.14,TARP,DOE-2,3563.11,297.11,297.11,0.00,10,0,0,No
 Zone Information, PERIMETER_BOT_ZN_1,0.0,0.00,0.00,0.00,36.55,2.20,1.37,1,1,1,0.00,73.11,0.00,4.57,0.00,2.74,2.74,860.02,TARP,DOE-2,313.42,200.61,84.70,115.90,6,1,0,Yes
 Zone Information, PERIMETER_BOT_ZN_2,0.0,0.00,0.00,0.00,70.95,24.37,1.37,1,1,1,68.53,73.11,0.00,48.74,0.00,2.74,2.74,554.22,TARP,DOE-2,201.98,133.74,56.47,77.27,6,1,0,Yes
 Zone Information, PERIMETER_BOT_ZN_3,0.0,0.00,0.00,0.00,36.55,46.54,1.37,1,1,1,0.00,73.11,44.17,48.74,0.00,2.74,2.74,860.00,TARP,DOE-2,313.41,200.61,84.70,115.90,6,1,0,Yes
 Zone Information, PERIMETER_BOT_ZN_4,0.0,0.00,0.00,0.00,2.16,24.37,1.37,1,1,1,0.00,4.57,0.00,48.74,0.00,2.74,2.74,554.22,TARP,DOE-2,201.98,133.74,56.47,77.27,6,1,0,Yes
 Zone Information, PERIMETER_MID_ZN_1,0.0,0.00,0.00,0.00,36.55,2.20,21.19,1,10,1,0.00,73.11,0.00,4.57,19.82,22.56,2.74,860.02,TARP,DOE-2,313.42,200.61,84.70,115.90,6,1,0,Yes
 Zone Information, PERIMETER_MID_ZN_2,0.0,0.00,0.00,0.00,70.95,24.37,21.19,1,10,1,68.53,73.11,0.00,48.74,19.82,22.56,2.74,554.22,TARP,DOE-2,201.98,133.74,56.47,77.27,6,1,0,Yes
 Zone Information, PERIMETER_MID_ZN_3,0.0,0.00,0.00,0.00,36.55,46.54,21.19,1,10,1,0.00,73.11,44.17,48.74,19.82,22.56,2.74,860.00,TARP,DOE-2,313.41,200.61,84.70,115.90,6,1,0,Yes
 Zone Information, PERIMETER_MID_ZN_4,0.0,0.00,0.00,0.00,2.16,24.37,21.19,1,10,1,0.00,4.57,0.00,48.74,19.82,22.56,2.74,554.22,TARP,DOE-2,201.98,133.74,56.47,77.27,6,1,0,Yes
 Zone Information, PERIMETER_TOP_ZN_1,0.0,0.00,0.00,0.00,36.55,2.20,44.97,1,1,1,0.00,73.11,0.00,4.57,43.60,46.34,2.74,860.02,TARP,DOE-2,313.42,200.61,84.70,115.90,6,1,0,Yes
 Zone Information, PERIMETER_TOP_ZN_2,0.0,0.00,0.00,0.00,70.95,24.37,44.97,1,1,1,68.53,73.11,0.00,48.74,43.60,46.34,2.74,554.22,TARP,DOE-2,201.98,133.74,56.47,77.27,6,1,0,Yes
 Zone Information, PERIMETER_TOP_ZN_3,0.0,0.00,0.00,0.00,36.55,46.54,44.97,1,1,1,0.00,73.11,44.17,48.74,43.60,46.34,2.74,860.00,TARP,DOE-2,313.41,200.61,84.70,115.90,6,1,0,Yes
 Zone Information, PERIMETER_TOP_ZN_4,0.0,0.00,0.00,0.00,2.16,24.37,44.97,1,1,1,0.00,4.57,0.00,48.74,43.60,46.34,2.74,554.22,TARP,DOE-2,201.98,133.74,56.47,77.27,6,1,0,Yes
 Zone Information, TOPFLOOR_PLENUM,0.0,0.00,0.00,0.00,36.55,24.37,46.95,1,1,1,0.00,73.11,0.00,48.74,46.34,47.56,1.22,4344.14,TARP,DOE-2,3563.11,297.11,297.11,0.00,10,0,0,No
! <Zone Internal Gains Nominal>,Zone Name, Floor Area {m2},# Occupants,Area per Occupant {m2/person},Occupant per Area {person/m2},Interior Lighting {W/m2},Electric Load {W/m2},Gas Load {W/m2},Other Load {W/m2},Hot Water Eq {W/m2},Steam Equipment {W/m2},Sum Loads per Area {W/m2},Outdoor Controlled Baseboard Heat
 Zone Internal Gains Nominal, BASEMENT,3563.11,95.9,37.160,2.691E-002,16.140,10.760,0.000,0.000,0.000,0.000,26.900,No
 Zone Internal Gains Nominal, CORE_BOTTOM,2532.32,136.3,18.580,5.382E-002,16.140,10.760,0.000,0.000,0.000,0.000,26.900,No
 Zone Internal Gains Nominal, CORE_MID,2532.32,136.3,18.580,5.382E-002,16.140,10.760,0.000,0.000,0.000,0.000,26.900,No
 Zone Internal Gains Nominal, CORE_TOP,2532.32,136.3,18.580,5.382E-002,16.140,10.760,0.000,0.000,0.000,0.000,26.900,No
 Zone Internal Gains Nominal, GROUNDFLOOR_PLENUM,3563.11,0.0,N/A,0.000,0.000,0.000,0.000,0.000,0.000,0.000,0.000,No
 Zone Internal Gains Nominal, MIDFLOOR_PLENUM,3563.11,0.0,N/A,0.000,0.000,0.000,0.000,0.000,0.000,0.000,0.000,No
 Zone Internal Gains Nominal, PERIMETER_BOT_ZN_1,313.42,16.9,18.580,5.382E-002,16.140,10.760,0.000,0.000,0.000,0.000,26.900,No
 Zone Internal Gains Nominal, PERIMETER_BOT_ZN_2,201.98,10.9,18.580,5.382E-002,16.140,10.760,0.000,0.000,0.000,0.000,26.900,No
 Zone Internal Gains Nominal, PERIMETER_BOT_ZN_3,313.41,16.9,18.580,5.382E-002,16.140,10.760,0.000,0.000,0.000,0.000,26.900,No
 Zone Internal Gains Nominal, PERIMETER_BOT_ZN_4,201.98,10.9,18.580,5.382E-002,16.140,10.760,0.000,0.000,0.000,0.000,26.900,No
 Zone Internal Gains Nominal, PERIMETER_MID_ZN_1,313.42,16.9,18.580,5.382E-002,16.140,10.760,0.000,0.000,0.000,0.000,26.900,No
 Zone Internal Gains Nominal, PERIMETER_MID_ZN_2,201.98,10.9,18.580,5.382E-002,16.140,10.760,0.000,0.000,0.000,0.000,26.900,No
 Zone Internal Gains Nominal, PERIMETER_MID_ZN_3,313.41,16.9,18.580,5.382E-002,16.140,10.760,0.000,0.000,0.000,0.000,26.900,No
 Zone Internal Gains Nominal, PERIMETER_MID_ZN_4,201.98,10.9,18.580,5.382E-002,16.140,10.760,0.000,0.000,0.000,0.000,26.900,No
 Zone Internal Gains Nominal, PERIMETER_TOP_ZN_1,313.42,16.9,18.580,5.382E-002,16.140,10.760,0.000,0.000,0.000,0.000,26.900,No
 Zone Internal Gains Nominal, PERIMETER_TOP_ZN_2,201.98,10.9,18.580,5.382E-002,16.140,10.760,0.000,0.000,0.000,0.000,26.900,No
 Zone Internal Gains Nominal, PERIMETER_TOP_ZN_3,313.41,16.9,18.580,5.382E-002,16.140,10.760,0.000,0.000,0.000,0.000,26.900,No
 Zone Internal Gains Nominal, PERIMETER_TOP_ZN_4,201.98,10.9,18.580,5.382E-002,16.140,10.760,0.000,0.000,0.000,0.000,26.900,No
 Zone Internal Gains Nominal, TOPFLOOR_PLENUM,3563.11,0.0,N/A,0.000,0.000,0.000,0.000,0.000,0.000,0.000,0.000,No
! <People Internal Gains Nominal>,Name,Schedule Name,Zone Name,Zone Floor Area {m2},# Zone Occupants,Number of People {},People/Floor Area {person/m2},Floor Area per person {m2/person},Fraction Radiant,Fraction Convected,Sensible Fraction Calculation,Activity level,ASHRAE 55 Warnings,Carbon Dioxide Generation Rate,Nominal Minimum Number of People,Nominal Maximum Number of People,MRT Calculation Type,Work Efficiency, Clothing Insulation Calculation Method,Clothing Insulation Calculation Method Schedule,Clothing,Air Velocity,Fanger Calculation,Pierce Calculation,KSU Calculation
 People Internal Gains Nominal, BASEMENT PEOPLE,BLDG_OCC_SCH,BASEMENT,3563.11,95.9,95.9,2.691E-002,37.160,0.300,0.700,AutoCalculate,ACTIVITY_SCH,No,3.8200E-008,0,96,Zone Averaged,WORK_EFF_SCH,Clothing Insulation Schedule,N/A,CLOTHING_SCH,AIR_VELO_SCH,Yes,No,No
 People Internal Gains Nominal, CORE_BOTTOM PEOPLE,BLDG_OCC_SCH,CORE_BOTTOM,2532.32,136.3,136.3,5.382E-002,18.580,0.300,0.700,AutoCalculate,ACTIVITY_SCH,No,3.8200E-008,0,136,Zone Averaged,WORK_EFF_SCH,Clothing Insulation Schedule,N/A,CLOTHING_SCH,AIR_VELO_SCH,Yes,No,No
 People Internal Gains Nominal, CORE_MID PEOPLE,BLDG_OCC_SCH,CORE_MID,2532.32,136.3,136.3,5.382E-002,18.580,0.300,0.700,AutoCalculate,ACTIVITY_SCH,No,3.8200E-008,0,136,Zone Averaged,WORK_EFF_SCH,Clothing Insulation Schedule,N/A,CLOTHING_SCH,AIR_VELO_SCH,Yes,No,No
 People Internal Gains Nominal, CORE_TOP PEOPLE,BLDG_OCC_SCH,CORE_TOP,2532.32,136.3,136.3,5.382E-002,18.580,0.300,0.700,AutoCalculate,ACTIVITY_SCH,No,3.8200E-008,0,136,Zone Averaged,WORK_EFF_SCH,Clothing Insulation Schedule,N/A,CLOTHING_SCH,AIR_VELO_SCH,Yes,No,No
 People Internal Gains Nominal, PERIMETER_BOT_ZN_1 PEOPLE,BLDG_OCC_SCH,PERIMETER_BOT_ZN_1,313.42,16.9,16.9,5.382E-002,18.580,0.300,0.700,AutoCalculate,ACTIVITY_SCH,No,3.8200E-008,0,17,Zone Averaged,WORK_EFF_SCH,Clothing Insulation Schedule,N/A,CLOTHING_SCH,AIR_VELO_SCH,Yes,No,No
 People Internal Gains Nominal, PERIMETER_BOT_ZN_2 PEOPLE,BLDG_OCC_SCH,PERIMETER_BOT_ZN_2,201.98,10.9,10.9,5.382E-002,18.580,0.300,0.700,AutoCalculate,ACTIVITY_SCH,No,3.8200E-008,0,11,Zone Averaged,WORK_EFF_SCH,Clothing Insulation Schedule,N/A,CLOTHING_SCH,AIR_VELO_SCH,Yes,No,No
 People Internal Gains Nominal, PERIMETER_BOT_ZN_3 PEOPLE,BLDG_OCC_SCH,PERIMETER_BOT_ZN_3,313.41,16.9,16.9,5.382E-002,18.580,0.300,0.700,AutoCalculate,ACTIVITY_SCH,No,3.8200E-008,0,17,Zone Averaged,WORK_EFF_SCH,Clothing Insulation Schedule,N/A,CLOTHING_SCH,AIR_VELO_SCH,Yes,No,No
 People Internal Gains Nominal, PERIMETER_BOT_ZN_4 PEOPLE,BLDG_OCC_SCH,PERIMETER_BOT_ZN_4,201.98,10.9,10.9,5.382E-002,18.580,0.300,0.700,AutoCalculate,ACTIVITY_SCH,No,3.8200E-008,0,11,Zone Averaged,WORK_EFF_SCH,Clothing Insulation Schedule,N/A,CLOTHING_SCH,AIR_VELO_SCH,Yes,No,No
 People Internal Gains Nominal, PERIMETER_MID_ZN_1 PEOPLE,BLDG_OCC_SCH,PERIMETER_MID_ZN_1,313.42,16.9,16.9,5.382E-002,18.580,0.300,0.700,AutoCalculate,ACTIVITY_SCH,No,3.8200E-008,0,17,Zone Averaged,WORK_EFF_SCH,Clothing Insulation Schedule,N/A,CLOTHING_SCH,AIR_VELO_SCH,Yes,No,No
 People Internal Gains Nominal, PERIMETER_MID_ZN_2 PEOPLE,BLDG_OCC_SCH,PERIMETER_MID_ZN_2,201.98,10.9,10.9,5.382E-002,18.580,0.300,0.700,AutoCalculate,ACTIVITY_SCH,No,3.8200E-008,0,11,Zone Averaged,WORK_EFF_SCH,Clothing Insulation Schedule,N/A,CLOTHING_SCH,AIR_VELO_SCH,Yes,No,No
 People Internal Gains Nominal, PERIMETER_MID_ZN_3 PEOPLE,BLDG_OCC_SCH,PERIMETER_MID_ZN_3,313.41,16.9,16.9,5.382E-002,18.580,0.300,0.700,AutoCalculate,ACTIVITY_SCH,No,3.8200E-008,0,17,Zone Averaged,WORK_EFF_SCH,Clothing Insulation Schedule,N/A,CLOTHING_SCH,AIR_VELO_SCH,Yes,No,No
 People Internal Gains Nominal, PERIMETER_MID_ZN_4 PEOPLE,BLDG_OCC_SCH,PERIMETER_MID_ZN_4,201.98,10.9,10.9,5.382E-002,18.580,0.300,0.700,AutoCalculate,ACTIVITY_SCH,No,3.8200E-008,0,11,Zone Averaged,WORK_EFF_SCH,Clothing Insulation Schedule,N/A,CLOTHING_SCH,AIR_VELO_SCH,Yes,No,No
 People Internal Gains Nominal, PERIMETER_TOP_ZN_1 PEOPLE,BLDG_OCC_SCH,PERIMETER_TOP_ZN_1,313.42,16.9,16.9,5.382E-002,18.580,0.300,0.700,AutoCalculate,ACTIVITY_SCH,No,3.8200E-008,0,17,Zone Averaged,WORK_EFF_SCH,Clothing Insulation Schedule,N/A,CLOTHING_SCH,AIR_VELO_SCH,Yes,No,No
 People Internal Gains Nominal, PERIMETER_TOP_ZN_2 PEOPLE,BLDG_OCC_SCH,PERIMETER_TOP_ZN_2,201.98,10.9,10.9,5.382E-002,18.580,0.300,0.700,AutoCalculate,ACTIVITY_SCH,No,3.8200E-008,0,11,Zone Averaged,WORK_EFF_SCH,Clothing Insulation Schedule,N/A,CLOTHING_SCH,AIR_VELO_SCH,Yes,No,No
 People Internal Gains Nominal, PERIMETER_TOP_ZN_3 PEOPLE,BLDG_OCC_SCH,PERIMETER_TOP_ZN_3,313.41,16.9,16.9,5.382E-002,18.580,0.300,0.700,AutoCalculate,ACTIVITY_SCH,No,3.8200E-008,0,17,Zone Averaged,WORK_EFF_SCH,Clothing Insulation Schedule,N/A,CLOTHING_SCH,AIR_VELO_SCH,Yes,No,No
 People Internal Gains Nominal, PERIMETER_TOP_ZN_4 PEOPLE,BLDG_OCC_SCH,PERIMETER_TOP_ZN_4,201.98,10.9,10.9,5.382E-002,18.580,0.300,0.700,AutoCalculate,ACTIVITY_SCH,No,3.8200E-008,0,11,Zone Averaged,WORK_EFF_SCH,Clothing Insulation Schedule,N/A,CLOTHING_SCH,AIR_VELO_SCH,Yes,No,No
! <Lights Internal Gains Nominal>,Name,Schedule Name,Zone Name,Zone Floor Area {m2},# Zone Occupants,Lighting Level {W},Lights/Floor Area {W/m2},Lights per person {W/person},Fraction Return Air,Fraction Radiant,Fraction Short Wave,Fraction Convected,Fraction Replaceable,End-Use Category,Nominal Minimum Lighting Level {W},Nominal Maximum Lighting Level {W}
 Lights Internal Gains Nominal, BASEMENT_LIGHTS,BLDG_LIGHT_SCH,BASEMENT,3563.11,95.9,57508.531,16.140,599.762,0.000,0.700,0.200,0.100,1.000,General,0.000,57508.531
 Lights Internal Gains Nominal, CORE_BOTTOM_LIGHTS,BLDG_LIGHT_SCH,CORE_BOTTOM,2532.32,136.3,40871.696,16.140,299.881,0.000,0.700,0.200,0.100,1.000,General,0.000,40871.696
 Lights Internal Gains Nominal, CORE_MID_LIGHTS,BLDG_LIGHT_SCH,CORE_MID,2532.32,136.3,40871.696,16.140,299.881,0.000,0.700,0.200,0.100,1.000,General,0.000,40871.696
 Lights Internal Gains Nominal, CORE_TOP_LIGHTS,BLDG_LIGHT_SCH,CORE_TOP,2532.32,136.3,40871.696,16.140,299.881,0.000,0.700,0.200,0.100,1.000,General,0.000,40871.696
 Lights Internal Gains Nominal, PERIMETER_BOT_ZN_1_LIGHTS,BLDG_LIGHT_SCH,PERIMETER_BOT_ZN_1,313.42,16.9,5058.594,16.140,299.881,0.000,0.700,0.200,0.100,1.000,General,0.000,5058.594
 Lights Internal Gains Nominal, PERIMETER_BOT_ZN_2_LIGHTS,BLDG_LIGHT_SCH,PERIMETER_BOT_ZN_2,201.98,10.9,3259.879,16.140,299.881,0.000,0.700,0.200,0.100,1.000,General,0.000,3259.879
 Lights Internal Gains Nominal, PERIMETER_BOT_ZN_3_LIGHTS,BLDG_LIGHT_SCH,PERIMETER_BOT_ZN_3,313.41,16.9,5058.483,16.140,299.881,0.000,0.700,0.200,0.100,1.000,General,0.000,5058.483
 Lights Internal Gains Nominal, PERIMETER_BOT_ZN_4_LIGHTS,BLDG_LIGHT_SCH,PERIMETER_BOT_ZN_4,201.98,10.9,3259.879,16.140,299.881,0.000,0.700,0.200,0.100,1.000,General,0.000,3259.879
 Lights Internal Gains Nominal, PERIMETER_MID_ZN_1_LIGHTS,BLDG_LIGHT_SCH,PERIMETER_MID_ZN_1,313.42,16.9,5058.594,16.140,299.881,0.000,0.700,0.200,0.100,1.000,General,0.000,5058.594
 Lights Internal Gains Nominal, PERIMETER_MID_ZN_2_LIGHTS,BLDG_LIGHT_SCH,PERIMETER_MID_ZN_2,201.98,10.9,3259.879,16.140,299.881,0.000,0.700,0.200,0.100,1.000,General,0.000,3259.879
 Lights Internal Gains Nominal, PERIMETER_MID_ZN_3_LIGHTS,BLDG_LIGHT_SCH,PERIMETER_MID_ZN_3,313.41,16.9,5058.483,16.140,299.881,0.000,0.700,0.200,0.100,1.000,General,0.000,5058.483
 Lights Internal Gains Nominal, PERIMETER_MID_ZN_4_LIGHTS,BLDG_LIGHT_SCH,PERIMETER_MID_ZN_4,201.98,10.9,3259.879,16.140,299.881,0.000,0.700,0.200,0.100,1.000,General,0.000,3259.879
 Lights Internal Gains Nominal, PERIMETER_TOP_ZN_1_LIGHTS,BLDG_LIGHT_SCH,PERIMETER_TOP_ZN_1,313.42,16.9,5058.594,16.140,299.881,0.000,0.700,0.200,0.100,1.000,General,0.000,5058.594
 Lights Internal Gains Nominal, PERIMETER_TOP_ZN_2_LIGHTS,BLDG_LIGHT_SCH,PERIMETER_TOP_ZN_2,201.98,10.9,3259.879,16.140,299.881,0.000,0.700,0.200,0.100,1.000,General,0.000,3259.879
 Lights Internal Gains Nominal, PERIMETER_TOP_ZN_3_LIGHTS,BLDG_LIGHT_SCH,PERIMETER_TOP_ZN_3,313.41,16.9,5058.483,16.140,299.881,0.000,0.700,0.200,0.100,1.000,General,0.000,5058.483
 Lights Internal Gains Nominal, PERIMETER_TOP_ZN_4_LIGHTS,BLDG_LIGHT_SCH,PERIMETER_TOP_ZN_4,201.98,10.9,3259.879,16.140,299.881,0.000,0.700,0.200,0.100,1.000,General,0.000,3259.879
! <ElectricEquipment Internal Gains Nominal>,Name,Schedule Name,Zone Name,Zone Floor Area {m2},# Zone Occupants,Equipment Level {W},Equipment/Floor Area {W/m2},Equipment per person {W/person},Fraction Latent,Fraction Radiant,Fraction Lost,Fraction Convected,End-Use SubCategory,Nominal Minimum Equipment Level {W},Nominal Maximum Equipment Level {W}
 ElectricEquipment Internal Gains Nominal, BASEMENT_PLUGMISC_EQUIP,BLDG_EQUIP_SCH,BASEMENT,3563.11,95.9,38339.021,10.760,399.842,0.000,0.500,0.000,0.500,General,0.000,38339.021
 ElectricEquipment Internal Gains Nominal, CORE_BOTTOM_PLUGMISC_EQUIP,BLDG_EQUIP_SCH,CORE_BOTTOM,2532.32,136.3,27247.798,10.760,199.921,0.000,0.500,0.000,0.500,General,0.000,27247.798
 ElectricEquipment Internal Gains Nominal, CORE_MID_PLUGMISC_EQUIP,BLDG_EQUIP_SCH,CORE_MID,2532.32,136.3,27247.798,10.760,199.921,0.000,0.500,0.000,0.500,General,0.000,27247.798
 ElectricEquipment Internal Gains Nominal, CORE_TOP_PLUGMISC_EQUIP,BLDG_EQUIP_SCH,CORE_TOP,2532.32,136.3,27247.798,10.760,199.921,0.000,0.500,0.000,0.500,General,0.000,27247.798
 ElectricEquipment Internal Gains Nominal, PERIMETER_BOT_ZN_1_PLUGMISC_EQUIP,BLDG_EQUIP_SCH,PERIMETER_BOT_ZN_1,313.42,16.9,3372.396,10.760,199.921,0.000,0.500,0.000,0.500,General,0.000,3372.396
 ElectricEquipment Internal Gains Nominal, PERIMETER_BOT_ZN_2_PLUGMISC_EQUIP,BLDG_EQUIP_SCH,PERIMETER_BOT_ZN_2,201.98,10.9,2173.253,10.760,199.921,0.000,0.500,0.000,0.500,General,0.000,2173.253
 ElectricEquipment Internal Gains Nominal, PERIMETER_BOT_ZN_3_PLUGMISC_EQUIP,BLDG_EQUIP_SCH,PERIMETER_BOT_ZN_3,313.41,16.9,3372.322,10.760,199.921,0.000,0.500,0.000,0.500,General,0.000,3372.322
 ElectricEquipment Internal Gains Nominal, PERIMETER_BOT_ZN_4_PLUGMISC_EQUIP,BLDG_EQUIP_SCH,PERIMETER_BOT_ZN_4,201.98,10.9,2173.253,10.760,199.921,0.000,0.500,0.000,0.500,General,0.000,2173.253
 ElectricEquipment Internal Gains Nominal, PERIMETER_MID_ZN_1_PLUGMISC_EQUIP,BLDG_EQUIP_SCH,PERIMETER_MID_ZN_1,313.42,16.9,3372.396,10.760,199.921,0.000,0.500,0.000,0.500,General,0.000,3372.396
 ElectricEquipment Internal Gains Nominal, PERIMETER_MID_ZN_2_PLUGMISC_EQUIP,BLDG_EQUIP_SCH,PERIMETER_MID_ZN_2,201.98,10.9,2173.253,10.760,199.921,0.000,0.500,0.000,0.500,General,0.000,2173.253
 ElectricEquipment Internal Gains Nominal, PERIMETER_MID_ZN_3_PLUGMISC_EQUIP,BLDG_EQUIP_SCH,PERIMETER_MID_ZN_3,313.41,16.9,3372.322,10.760,199.921,0.000,0.500,0.000,0.500,General,0.000,3372.322
 ElectricEquipment Internal Gains Nominal, PERIMETER_MID_ZN_4_PLUGMISC_EQUIP,BLDG_EQUIP_SCH,PERIMETER_MID_ZN_4,201.98,10.9,2173.253,10.760,199.921,0.000,0.500,0.000,0.500,General,0.000,2173.253
 ElectricEquipment Internal Gains Nominal, PERIMETER_TOP_ZN_1_PLUGMISC_EQUIP,BLDG_EQUIP_SCH,PERIMETER_TOP_ZN_1,313.42,16.9,3372.396,10.760,199.921,0.000,0.500,0.000,0.500,General,0.000,3372.396
 ElectricEquipment Internal Gains Nominal, PERIMETER_TOP_ZN_2_PLUGMISC_EQUIP,BLDG_EQUIP_SCH,PERIMETER_TOP_ZN_2,201.98,10.9,2173.253,10.760,199.921,0.000,0.500,0.000,0.500,General,0.000,2173.253
 ElectricEquipment Internal Gains Nominal, PERIMETER_TOP_ZN_3_PLUGMISC_EQUIP,BLDG_EQUIP_SCH,PERIMETER_TOP_ZN_3,313.41,16.9,3372.322,10.760,199.921,0.000,0.500,0.000,0.500,General,0.000,3372.322
 ElectricEquipment Internal Gains Nominal, PERIMETER_TOP_ZN_4_PLUGMISC_EQUIP,BLDG_EQUIP_SCH,PERIMETER_TOP_ZN_4,201.98,10.9,2173.253,10.760,199.921,0.000,0.500,0.000,0.500,General,0.000,2173.253
! <Shadowing/Sun Position Calculations Annual Simulations>, Calculation Method, Value {days}, Allowable Number Figures in Shadow Overlap {}, Polygon Clipping Algorithm, Sky Diffuse Modeling Algorithm, External Shading Calculation Method, Output External Shading Calculation Results, Disable Self-Shading Within Shading Zone Groups, Disable Self-Shading From Shading Zone Groups to Other Zones
Shadowing/Sun Position Calculations Annual Simulations,AverageOverDaysInFrequency,7,15000,SutherlandHodgman,SimpleSkyDiffuseModeling,InternalCalculation,No,No,No
! <Water Heater Information>,Type,Name,Volume {m3},Maximum Capacity {W},Standard Rated Recovery Efficiency, Standard Rated Energy Factor
! <ZoneInfiltration Airflow Stats Nominal>,Name,Schedule Name,Zone Name, Zone Floor Area {m2}, # Zone Occupants,Design Volume Flow Rate {m3/s},Volume Flow Rate/Floor Area {m3/s-m2},Volume Flow Rate/Exterior Surface Area {m3/s-m2},ACH - Air Changes per Hour,Equation A - Constant Term Coefficient {},Equation B - Temperature Term Coefficient {1/C},Equation C - Velocity Term Coefficient {s/m}, Equation D - Velocity Squared Term Coefficient {s2/m2}
 ZoneInfiltration Airflow Stats Nominal, GROUNDFLOOR_PLENUM_INFILTRATION,INFIL_QUARTER_ON_SCH,GROUNDFLOOR_PLENUM,3563.11,0.0,0.337,9.447E-005,1.133E-003,0.279,1.000,0.000,0.000,0.000
 ZoneInfiltration Airflow Stats Nominal, MIDFLOOR_PLENUM_INFILTRATION,INFIL_QUARTER_ON_SCH,MIDFLOOR_PLENUM,3563.11,0.0,0.337,9.447E-005,1.133E-003,0.279,1.000,0.000,0.000,0.000
 ZoneInfiltration Airflow Stats Nominal, PERIMETER_BOT_ZN_1_INFILTRATION,INFIL_QUARTER_ON_SCH,PERIMETER_BOT_ZN_1,313.42,16.9,0.227,7.252E-004,1.133E-003,0.951,1.000,0.000,0.000,0.000
 ZoneInfiltration Airflow Stats Nominal, PERIMETER_BOT_ZN_2_INFILTRATION,INFIL_QUARTER_ON_SCH,PERIMETER_BOT_ZN_2,201.98,10.9,0.152,7.502E-004,1.133E-003,0.984,1.000,0.000,0.000,0.000
 ZoneInfiltration Airflow Stats Nominal, PERIMETER_BOT_ZN_3_INFILTRATION,INFIL_QUARTER_ON_SCH,PERIMETER_BOT_ZN_3,313.41,16.9,0.227,7.252E-004,1.133E-003,0.951,1.000,0.000,0.000,0.000
 ZoneInfiltration Airflow Stats Nominal, PERIMETER_BOT_ZN_4_INFILTRATION,INFIL_QUARTER_ON_SCH,PERIMETER_BOT_ZN_4,201.98,10.9,0.152,7.502E-004,1.133E-003,0.984,1.000,0.000,0.000,0.000
 ZoneInfiltration Airflow Stats Nominal, PERIMETER_MID_ZN_1_INFILTRATION,INFIL_QUARTER_ON_SCH,PERIMETER_MID_ZN_1,313.42,16.9,0.227,7.252E-004,1.133E-003,0.951,1.000,0.000,0.000,0.000
 ZoneInfiltration Airflow Stats Nominal, PERIMETER_MID_ZN_2_INFILTRATION,INFIL_QUARTER_ON_SCH,PERIMETER_MID_ZN_2,201.98,10.9,0.152,7.502E-004,1.133E-003,0.984,1.000,0.000,0.000,0.000
 ZoneInfiltration Airflow Stats Nominal, PERIMETER_MID_ZN_3_INFILTRATION,INFIL_QUARTER_ON_SCH,PERIMETER_MID_ZN_3,313.41,16.9,0.227,7.252E-004,1.133E-003,0.951,1.000,0.000,0.000,0.000
 ZoneInfiltration Airflow Stats Nominal, PERIMETER_MID_ZN_4_INFILTRATION,INFIL_QUARTER_ON_SCH,PERIMETER_MID_ZN_4,201.98,10.9,0.152,7.502E-004,1.133E-003,0.984,1.000,0.000,0.000,0.000
 ZoneInfiltration Airflow Stats Nominal, PERIMETER_TOP_ZN_1_INFILTRATION,INFIL_QUARTER_ON_SCH,PERIMETER_TOP_ZN_1,313.42,16.9,0.227,7.252E-004,1.133E-003,0.951,1.000,0.000,0.000,0.000
 ZoneInfiltration Airflow Stats Nominal, PERIMETER_TOP_ZN_2_INFILTRATION,INFIL_QUARTER_ON_SCH,PERIMETER_TOP_ZN_2,201.98,10.9,0.152,7.502E-004,1.133E-003,0.984,1.000,0.000,0.000,0.000
 ZoneInfiltration Airflow Stats Nominal, PERIMETER_TOP_ZN_3_INFILTRATION,INFIL_QUARTER_ON_SCH,PERIMETER_TOP_ZN_3,313.41,16.9,0.227,7.252E-004,1.133E-003,0.951,1.000,0.000,0.000,0.000
 ZoneInfiltration Airflow Stats Nominal, PERIMETER_TOP_ZN_4_INFILTRATION,INFIL_QUARTER_ON_SCH,PERIMETER_TOP_ZN_4,201.98,10.9,0.152,7.502E-004,1.133E-003,0.984,1.000,0.000,0.000,0.000
 ZoneInfiltration Airflow Stats Nominal, TOPFLOOR_PLENUM_INFILTRATION,INFIL_QUARTER_ON_SCH,TOPFLOOR_PLENUM,3563.11,0.0,4.374,1.227E-003,1.133E-003,3.624,1.000,0.000,0.000,0.000
! <AirFlow Model>, Simple
 AirFlow Model, Simple
! <RoomAir Model>, Zone Name, Mixing/Mundt/UCSDDV/UCSDCV/UCSDUFI/UCSDUFE/User Defined
RoomAir Model,BASEMENT,Mixing/Well-Stirred
RoomAir Model,CORE_BOTTOM,Mixing/Well-Stirred
RoomAir Model,CORE_MID,Mixing/Well-Stirred
RoomAir Model,CORE_TOP,Mixing/Well-Stirred
RoomAir Model,GROUNDFLOOR_PLENUM,Mixing/Well-Stirred
RoomAir Model,MIDFLOOR_PLENUM,Mixing/Well-Stirred
RoomAir Model,PERIMETER_BOT_ZN_1,Mixing/Well-Stirred
RoomAir Model,PERIMETER_BOT_ZN_2,Mixing/Well-Stirred
RoomAir Model,PERIMETER_BOT_ZN_3,Mixing/Well-Stirred
RoomAir Model,PERIMETER_BOT_ZN_4,Mixing/Well-Stirred
RoomAir Model,PERIMETER_MID_ZN_1,Mixing/Well-Stirred
RoomAir Model,PERIMETER_MID_ZN_2,Mixing/Well-Stirred
RoomAir Model,PERIMETER_MID_ZN_3,Mixing/Well-Stirred
RoomAir Model,PERIMETER_MID_ZN_4,Mixing/Well-Stirred
RoomAir Model,PERIMETER_TOP_ZN_1,Mixing/Well-Stirred
RoomAir Model,PERIMETER_TOP_ZN_2,Mixing/Well-Stirred
RoomAir Model,PERIMETER_TOP_ZN_3,Mixing/Well-Stirred
RoomAir Model,PERIMETER_TOP_ZN_4,Mixing/Well-Stirred
RoomAir Model,TOPFLOOR_PLENUM,Mixing/Well-Stirred
! <AirflowNetwork Model:Control>, No Multizone or Distribution/Multizone with Distribution/Multizone without Distribution/Multizone with Distribution only during Fan Operation
AirflowNetwork Model:Control,NoMultizoneOrDistribution
! <Zone Volume Capacitance Multiplier>, Sensible Heat Capacity Multiplier, Moisture Capacity Multiplier, Carbon Dioxide Capacity Multiplier, Generic Contaminant Capacity Multiplier
Zone Volume Capacitance Multiplier,   1.000 ,   1.000,   1.000,   1.000
! <Load Timesteps in Zone Design Calculation Averaging Window>, Value
 Load Timesteps in Zone Design Calculation Averaging Window,    6
! <Heating Sizing Factor Information>, Sizing Factor ID, Value
 Heating Sizing Factor Information, Global,   1.3300    
 Heating Sizing Factor Information, Zone BASEMENT,   1.3300    
 Heating Sizing Factor Information, Zone CORE_BOTTOM,   1.3300    
 Heating Sizing Factor Information, Zone CORE_MID,   1.3300    
 Heating Sizing Factor Information, Zone CORE_TOP,   1.3300    
 Heating Sizing Factor Information, Zone PERIMETER_BOT_ZN_1,   1.3300    
 Heating Sizing Factor Information, Zone PERIMETER_BOT_ZN_2,   1.3300    
 Heating Sizing Factor Information, Zone PERIMETER_BOT_ZN_3,   1.3300    
 Heating Sizing Factor Information, Zone PERIMETER_BOT_ZN_4,   1.3300    
 Heating Sizing Factor Information, Zone PERIMETER_MID_ZN_1,   1.3300    
 Heating Sizing Factor Information, Zone PERIMETER_MID_ZN_2,   1.3300    
 Heating Sizing Factor Information, Zone PERIMETER_MID_ZN_3,   1.3300    
 Heating Sizing Factor Information, Zone PERIMETER_MID_ZN_4,   1.3300    
 Heating Sizing Factor Information, Zone PERIMETER_TOP_ZN_1,   1.3300    
 Heating Sizing Factor Information, Zone PERIMETER_TOP_ZN_2,   1.3300    
 Heating Sizing Factor Information, Zone PERIMETER_TOP_ZN_3,   1.3300    
 Heating Sizing Factor Information, Zone PERIMETER_TOP_ZN_4,   1.3300    
! <Cooling Sizing Factor Information>, Sizing Factor ID, Value
 Cooling Sizing Factor Information, Global,   1.3300    
 Cooling Sizing Factor Information, Zone BASEMENT,   1.3300    
 Cooling Sizing Factor Information, Zone CORE_BOTTOM,   1.3300    
 Cooling Sizing Factor Information, Zone CORE_MID,   1.3300    
 Cooling Sizing Factor Information, Zone CORE_TOP,   1.3300    
 Cooling Sizing Factor Information, Zone PERIMETER_BOT_ZN_1,   1.3300    
 Cooling Sizing Factor Information, Zone PERIMETER_BOT_ZN_2,   1.3300    
 Cooling Sizing Factor Information, Zone PERIMETER_BOT_ZN_3,   1.3300    
 Cooling Sizing Factor Information, Zone PERIMETER_BOT_ZN_4,   1.3300    
 Cooling Sizing Factor Information, Zone PERIMETER_MID_ZN_1,   1.3300    
 Cooling Sizing Factor Information, Zone PERIMETER_MID_ZN_2,   1.3300    
 Cooling Sizing Factor Information, Zone PERIMETER_MID_ZN_3,   1.3300    
 Cooling Sizing Factor Information, Zone PERIMETER_MID_ZN_4,   1.3300    
 Cooling Sizing Factor Information, Zone PERIMETER_TOP_ZN_1,   1.3300    
 Cooling Sizing Factor Information, Zone PERIMETER_TOP_ZN_2,   1.3300    
 Cooling Sizing Factor Information, Zone PERIMETER_TOP_ZN_3,   1.3300    
 Cooling Sizing Factor Information, Zone PERIMETER_TOP_ZN_4,   1.3300    
! <Zone Sizing Information>, Zone Name, Load Type, Calc Des Load {W}, User Des Load {W}, Calc Des Air Flow Rate {m3/s}, User Des Air Flow Rate {m3/s}, Design Day Name, Date/Time of Peak, Temperature at Peak {C}, Humidity Ratio at Peak {kgWater/kgDryAir}, Floor Area {m2}, # Occupants, Calc Outdoor Air Flow Rate {m3/s}, Calc DOAS Heat Addition Rate {W}
 Zone Sizing Information, BASEMENT, Cooling, 99397.08527, 132198.12341, 7.25161, 9.64464, CHICAGO ANN CLG .4% CONDNS WB=>MDB, 7/21 07:00:00, 21.46300, 1.64954E-002, 3563.10602, 95.88552, 1.19857, 0.00000
 Zone Sizing Information, BASEMENT, Heating, 12563.32804, 16709.22629, 0.36130, 1.19857, CHICAGO ANN HTG 99.6% CONDNS DB, 1/21 08:10:00, -20.60000, 6.12575E-004, 3563.10602, 95.88552, 1.19857, 0.00000
 Zone Sizing Information, CORE_BOTTOM, Cooling, 108477.89664, 144275.60253, 7.93673, 10.55585, CHICAGO ANN CLG .4% CONDNS WB=>MDB, 7/21 07:00:00, 21.46300, 1.64954E-002, 2532.32320, 136.29296, 1.70366, 0.00000
 Zone Sizing Information, CORE_BOTTOM, Heating, 16922.18192, 22506.50196, 0.48665, 1.70366, CHICAGO ANN HTG 99.6% CONDNS DB, 1/21 06:10:00, -20.60000, 6.12575E-004, 2532.32320, 136.29296, 1.70366, 0.00000
 Zone Sizing Information, CORE_MID, Cooling, 1137391.70758, 1512730.97108, 83.24946, 110.72178, CHICAGO ANN CLG .4% CONDNS WB=>MDB, 7/21 07:00:00, 21.46300, 1.64954E-002, 2532.32320, 136.29296, 17.03662, 0.00000
 Zone Sizing Information, CORE_MID, Heating, 190718.29382, 253655.33078, 5.48469, 17.03662, CHICAGO ANN HTG 99.6% CONDNS DB, 1/21 06:10:00, -20.60000, 6.12575E-004, 2532.32320, 136.29296, 17.03662, 0.00000
 Zone Sizing Information, CORE_TOP, Cooling, 105264.99070, 140002.43763, 7.69986, 10.24081, CHICAGO ANN CLG .4% CONDNS WB=>MDB, 7/21 07:00:00, 21.46300, 1.64954E-002, 2532.32320, 136.29296, 1.70366, 0.00000
 Zone Sizing Information, CORE_TOP, Heating, 99259.60363, 132015.27283, 2.85452, 3.79651, CHICAGO ANN HTG 99.6% CONDNS DB, 1/21 06:10:00, -20.60000, 6.12575E-004, 2532.32320, 136.29296, 1.70366, 0.00000
 Zone Sizing Information, PERIMETER_BOT_ZN_1, Cooling, 17085.96104, 22724.32818, 1.27169, 1.69134, CHICAGO ANN CLG .4% CONDNS WB=>MDB, 7/21 12:50:00, 30.52233, 1.87829E-002, 313.41969, 16.86866, 0.21086, 0.00000
 Zone Sizing Information, PERIMETER_BOT_ZN_1, Heating, 26171.44625, 34808.02352, 0.75203, 1.00020, CHICAGO ANN HTG 99.6% CONDNS DB, 1/21 06:00:00, -20.60000, 6.12575E-004, 313.41969, 16.86866, 0.21086, 0.00000
 Zone Sizing Information, PERIMETER_BOT_ZN_2, Cooling, 19921.87321, 26496.09137, 1.48264, 1.97192, CHICAGO ANN CLG .4% CONDNS WB=>MDB, 7/21 08:00:00, 23.28200, 1.84826E-002, 201.97515, 10.87057, 0.13588, 0.00000
 Zone Sizing Information, PERIMETER_BOT_ZN_2, Heating, 17418.47024, 23166.56542, 0.50051, 0.66567, CHICAGO ANN HTG 99.6% CONDNS DB, 1/21 06:00:00, -20.60000, 6.12575E-004, 201.97515, 10.87057, 0.13588, 0.00000
 Zone Sizing Information, PERIMETER_BOT_ZN_3, Cooling, 15017.13725, 19972.79254, 1.11772, 1.48656, CHICAGO ANN CLG .4% CONDNS WB=>MDB, 7/21 14:40:00, 31.20000, 1.87829E-002, 313.41284, 16.86829, 0.21085, 0.00000
 Zone Sizing Information, PERIMETER_BOT_ZN_3, Heating, 25940.69675, 34501.12667, 0.74540, 0.99138, CHICAGO ANN HTG 99.6% CONDNS DB, 1/21 06:00:00, -20.60000, 6.12575E-004, 313.41284, 16.86829, 0.21085, 0.00000
 Zone Sizing Information, PERIMETER_BOT_ZN_4, Cooling, 20801.44859, 27665.92663, 1.54817, 2.05907, CHICAGO ANN CLG .4% CONDNS WB=>MDB, 7/21 17:00:00, 29.70200, 1.87829E-002, 201.97515, 10.87057, 0.13588, 0.00000
 Zone Sizing Information, PERIMETER_BOT_ZN_4, Heating, 17399.68898, 23141.58634, 0.49997, 0.66495, CHICAGO ANN HTG 99.6% CONDNS DB, 1/21 06:00:00, -20.60000, 6.12575E-004, 201.97515, 10.87057, 0.13588, 0.00000
 Zone Sizing Information, PERIMETER_MID_ZN_1, Cooling, 177999.30622, 236739.07727, 13.24822, 17.62014, CHICAGO ANN CLG .4% CONDNS WB=>MDB, 7/21 13:10:00, 30.75417, 1.87829E-002, 313.41969, 16.86866, 2.10858, 0.00000
 Zone Sizing Information, PERIMETER_MID_ZN_1, Heating, 283096.23960, 376517.99867, 8.13472, 10.81918, CHICAGO ANN HTG 99.6% CONDNS DB, 1/21 06:00:00, -20.60000, 6.12575E-004, 313.41969, 16.86866, 2.10858, 0.00000
 Zone Sizing Information, PERIMETER_MID_ZN_2, Cooling, 203968.00395, 271277.44525, 15.18004, 20.18946, CHICAGO ANN CLG .4% CONDNS WB=>MDB, 7/21 08:20:00, 23.95967, 1.87829E-002, 201.97515, 10.87057, 1.35882, 0.00000
 Zone Sizing Information, PERIMETER_MID_ZN_2, Heating, 186553.43142, 248116.06378, 5.36049, 7.12946, CHICAGO ANN HTG 99.6% CONDNS DB, 1/21 06:00:00, -20.60000, 6.12575E-004, 201.97515, 10.87057, 1.35882, 0.00000
 Zone Sizing Information, PERIMETER_MID_ZN_3, Cooling, 151955.29741, 202100.54556, 11.30992, 15.04220, CHICAGO ANN CLG .4% CONDNS WB=>MDB, 7/21 14:40:00, 31.20000, 1.87829E-002, 313.41284, 16.86829, 2.10854, 0.00000
 Zone Sizing Information, PERIMETER_MID_ZN_3, Heating, 281819.07330, 374819.36749, 8.09802, 10.77037, CHICAGO ANN HTG 99.6% CONDNS DB, 1/21 06:00:00, -20.60000, 6.12575E-004, 313.41284, 16.86829, 2.10854, 0.00000
 Zone Sizing Information, PERIMETER_MID_ZN_4, Cooling, 217299.43526, 289008.24890, 16.17270, 21.50969, CHICAGO ANN CLG .4% CONDNS WB=>MDB, 7/21 17:10:00, 29.52367, 1.87829E-002, 201.97515, 10.87057, 1.35882, 0.00000
 Zone Sizing Information, PERIMETER_MID_ZN_4, Heating, 188487.05963, 250687.78931, 5.41605, 7.20335, CHICAGO ANN HTG 99.6% CONDNS DB, 1/21 06:00:00, -20.60000, 6.12575E-004, 201.97515, 10.87057, 1.35882, 0.00000
 Zone Sizing Information, PERIMETER_TOP_ZN_1, Cooling, 17463.43951, 23226.37454, 1.29978, 1.72871, CHICAGO ANN CLG .4% CONDNS WB=>MDB, 7/21 13:20:00, 30.84333, 1.87829E-002, 313.41969, 16.86866, 0.21086, 0.00000
 Zone Sizing Information, PERIMETER_TOP_ZN_1, Heating, 38855.17994, 51677.38932, 1.11653, 1.48499, CHICAGO ANN HTG 99.6% CONDNS DB, 1/21 06:00:00, -20.60000, 6.12575E-004, 313.41969, 16.86866, 0.21086, 0.00000
 Zone Sizing Information, PERIMETER_TOP_ZN_2, Cooling, 19578.35687, 26039.21464, 1.45711, 1.93795, CHICAGO ANN CLG .4% CONDNS WB=>MDB, 7/21 08:30:00, 24.29850, 1.87829E-002, 201.97515, 10.87057, 0.13588, 0.00000
 Zone Sizing Information, PERIMETER_TOP_ZN_2, Heating, 25398.71684, 33780.29340, 0.72984, 0.97068, CHICAGO ANN HTG 99.6% CONDNS DB, 1/21 06:00:00, -20.60000, 6.12575E-004, 201.97515, 10.87057, 0.13588, 0.00000
 Zone Sizing Information, PERIMETER_TOP_ZN_3, Cooling, 15216.31781, 20237.70269, 1.13254, 1.50628, CHICAGO ANN CLG .4% CONDNS WB=>MDB, 7/21 15:20:00, 30.98600, 1.87829E-002, 313.41284, 16.86829, 0.21085, 0.00000
 Zone Sizing Information, PERIMETER_TOP_ZN_3, Heating, 38796.05993, 51598.75971, 1.11483, 1.48272, CHICAGO ANN HTG 99.6% CONDNS DB, 1/21 06:00:00, -20.60000, 6.12575E-004, 313.41284, 16.86829, 0.21085, 0.00000
 Zone Sizing Information, PERIMETER_TOP_ZN_4, Cooling, 21869.58171, 29086.54367, 1.62766, 2.16479, CHICAGO ANN CLG .4% CONDNS WB=>MDB, 7/21 17:10:00, 29.52367, 1.87829E-002, 201.97515, 10.87057, 0.13588, 0.00000
 Zone Sizing Information, PERIMETER_TOP_ZN_4, Heating, 25663.28803, 34132.17308, 0.73744, 0.98080, CHICAGO ANN HTG 99.6% CONDNS DB, 1/21 06:00:00, -20.60000, 6.12575E-004, 201.97515, 10.87057, 0.13588, 0.00000
! <System Sizing Information>, System Name, Load Type, Peak Load Kind, User Design Capacity, Calc Des Air Flow Rate [m3/s], User Des Air Flow Rate [m3/s], Design Day Name, Date/Time of Peak
 System Sizing Information, VAV_1, Cooling, Sensible, 236989.80, 17.76474, 17.76474, CHICAGO ANN CLG .4% CONDNS WB=>MDB, 7/21 00:00:00
 System Sizing Information, VAV_1, Heating, Sensible, 92343.20, 5.02586, 5.02586, CHICAGO ANN HTG 99.6% CONDNS DB, 1/21 18:00:00
 System Sizing Information, VAV_2, Cooling, Sensible, 2470359.25, 185.08326, 185.08326, CHICAGO ANN CLG .4% CONDNS WB=>MDB, 7/21 00:00:00
 System Sizing Information, VAV_2, Heating, Sensible, 909772.46, 52.95898, 52.95898, CHICAGO ANN HTG 99.6% CONDNS DB, 1/21 18:00:00
 System Sizing Information, VAV_3, Cooling, Sensible, 235082.56, 17.57854, 17.57854, CHICAGO ANN CLG .4% CONDNS WB=>MDB, 7/21 00:00:00
 System Sizing Information, VAV_3, Heating, Sensible, 73642.84, 8.71569, 8.71569, CHICAGO ANN HTG 99.6% CONDNS DB, 1/21 18:00:00
 System Sizing Information, VAV_5, Cooling, Sensible, 125038.58, 9.64464, 9.64464, CHICAGO ANN CLG .4% CONDNS WB=>MDB, 7/21 00:00:00
 System Sizing Information, VAV_5, Heating, Sensible, 52825.25, 1.19857, 1.19857, CHICAGO ANN HTG 99.6% CONDNS DB, 1/21 00:10:00
! <Component Sizing Information>, Component Type, Component Name, Input Field Description, Value
 Component Sizing Information, AirTerminal:SingleDuct:VAV:Reheat, BASEMENT VAV BOX COMPONENT, Design Size Maximum Air Flow Rate [m3/s], 9.64464
 Component Sizing Information, AirTerminal:SingleDuct:VAV:Reheat, BASEMENT VAV BOX COMPONENT, Design Size Constant Minimum Air Flow Fraction, 0.28151
 Component Sizing Information, AirTerminal:SingleDuct:VAV:Reheat, BASEMENT VAV BOX COMPONENT, User-Specified Constant Minimum Air Flow Fraction, 0.30000
 Component Sizing Information, AirTerminal:SingleDuct:VAV:Reheat, BASEMENT VAV BOX COMPONENT, Design Size Minimum Air Flow Rate [m3/s], 2.89339
 Component Sizing Information, AirTerminal:SingleDuct:VAV:Reheat, BASEMENT VAV BOX COMPONENT, Design Size Maximum Flow per Zone Floor Area during Reheat [m3/s-m2], 8.12042E-004
 Component Sizing Information, AirTerminal:SingleDuct:VAV:Reheat, BASEMENT VAV BOX COMPONENT, Design Size Maximum Flow Fraction during Reheat [], 0.30000
 Component Sizing Information, AirTerminal:SingleDuct:VAV:Reheat, BASEMENT VAV BOX COMPONENT, Design Size Maximum Reheat Water Flow Rate [m3/s], 6.92475E-004
 Component Sizing Information, AirTerminal:SingleDuct:VAV:Reheat, BASEMENT VAV BOX COMPONENT, Design Size Reheat Coil Sizing Air Volume Flow Rate [m3/s], 2.89339
 Component Sizing Information, AirTerminal:SingleDuct:VAV:Reheat, BASEMENT VAV BOX COMPONENT, Design Size Reheat Coil Sizing Inlet Air Temperature [C], 16.70000
 Component Sizing Information, AirTerminal:SingleDuct:VAV:Reheat, BASEMENT VAV BOX COMPONENT, Design Size Reheat Coil Sizing Inlet Air Humidity Ratio [kgWater/kgDryAir], 8.00000E-003
 Component Sizing Information, Coil:Heating:Water, BASEMENT VAV BOX REHEAT COIL, Design Size Rated Capacity [W], 31627.47838
 Component Sizing Information, Coil:Heating:Water, BASEMENT VAV BOX REHEAT COIL, Design Size Maximum Water Flow Rate [m3/s], 6.92475E-004
 Component Sizing Information, Coil:Heating:Water, BASEMENT VAV BOX REHEAT COIL, Design Size U-Factor Times Area Value [W/K], 595.59157
! <Water Heating Coil Capacity Information>,Component Type,Name,Nominal Total Capacity {W}
Water Heating Coil Capacity Information,Coil:Heating:Water,BASEMENT VAV BOX REHEAT COIL,31699.01
 Component Sizing Information, AirTerminal:SingleDuct:VAV:Reheat, CORE_BOTTOM VAV BOX COMPONENT, Design Size Maximum Air Flow Rate [m3/s], 10.55585
 Component Sizing Information, AirTerminal:SingleDuct:VAV:Reheat, CORE_BOTTOM VAV BOX COMPONENT, Design Size Constant Minimum Air Flow Fraction, 0.20000
 Component Sizing Information, AirTerminal:SingleDuct:VAV:Reheat, CORE_BOTTOM VAV BOX COMPONENT, User-Specified Constant Minimum Air Flow Fraction, 0.30000
 Component Sizing Information, AirTerminal:SingleDuct:VAV:Reheat, CORE_BOTTOM VAV BOX COMPONENT, Design Size Minimum Air Flow Rate [m3/s], 3.16675
 Component Sizing Information, AirTerminal:SingleDuct:VAV:Reheat, CORE_BOTTOM VAV BOX COMPONENT, Design Size Maximum Flow per Zone Floor Area during Reheat [m3/s-m2], 1.25053E-003
 Component Sizing Information, AirTerminal:SingleDuct:VAV:Reheat, CORE_BOTTOM VAV BOX COMPONENT, Design Size Maximum Flow Fraction during Reheat [], 0.30000
 Component Sizing Information, AirTerminal:SingleDuct:VAV:Reheat, CORE_BOTTOM VAV BOX COMPONENT, Design Size Maximum Reheat Water Flow Rate [m3/s], 8.50264E-004
 Component Sizing Information, AirTerminal:SingleDuct:VAV:Reheat, CORE_BOTTOM VAV BOX COMPONENT, Design Size Reheat Coil Sizing Air Volume Flow Rate [m3/s], 3.16675
 Component Sizing Information, AirTerminal:SingleDuct:VAV:Reheat, CORE_BOTTOM VAV BOX COMPONENT, Design Size Reheat Coil Sizing Inlet Air Temperature [C], 16.70000
 Component Sizing Information, AirTerminal:SingleDuct:VAV:Reheat, CORE_BOTTOM VAV BOX COMPONENT, Design Size Reheat Coil Sizing Inlet Air Humidity Ratio [kgWater/kgDryAir], 8.00000E-003
 Component Sizing Information, Coil:Heating:Water, CORE_BOTTOM VAV BOX REHEAT COIL, Design Size Rated Capacity [W], 38834.19760
 Component Sizing Information, Coil:Heating:Water, CORE_BOTTOM VAV BOX REHEAT COIL, Design Size Maximum Water Flow Rate [m3/s], 8.50264E-004
 Component Sizing Information, Coil:Heating:Water, CORE_BOTTOM VAV BOX REHEAT COIL, Design Size U-Factor Times Area Value [W/K], 742.92042
Water Heating Coil Capacity Information,Coil:Heating:Water,CORE_BOTTOM VAV BOX REHEAT COIL,38918.52
 Component Sizing Information, AirTerminal:SingleDuct:VAV:Reheat, CORE_MID VAV BOX COMPONENT, Design Size Maximum Air Flow Rate [m3/s], 110.72178
 Component Sizing Information, AirTerminal:SingleDuct:VAV:Reheat, CORE_MID VAV BOX COMPONENT, Design Size Constant Minimum Air Flow Fraction, 0.20000
 Component Sizing Information, AirTerminal:SingleDuct:VAV:Reheat, CORE_MID VAV BOX COMPONENT, User-Specified Constant Minimum Air Flow Fraction, 0.30000
 Component Sizing Information, AirTerminal:SingleDuct:VAV:Reheat, CORE_MID VAV BOX COMPONENT, Design Size Minimum Air Flow Rate [m3/s], 33.21653
 Component Sizing Information, AirTerminal:SingleDuct:VAV:Reheat, CORE_MID VAV BOX COMPONENT, Design Size Maximum Flow per Zone Floor Area during Reheat [m3/s-m2], 1.31170E-003
 Component Sizing Information, AirTerminal:SingleDuct:VAV:Reheat, CORE_MID VAV BOX COMPONENT, Design Size Maximum Flow Fraction during Reheat [], 0.30000
 Component Sizing Information, AirTerminal:SingleDuct:VAV:Reheat, CORE_MID VAV BOX COMPONENT, Design Size Maximum Reheat Water Flow Rate [m3/s], 9.30349E-003
 Component Sizing Information, AirTerminal:SingleDuct:VAV:Reheat, CORE_MID VAV BOX COMPONENT, Design Size Reheat Coil Sizing Air Volume Flow Rate [m3/s], 33.21653
 Component Sizing Information, AirTerminal:SingleDuct:VAV:Reheat, CORE_MID VAV BOX COMPONENT, Design Size Reheat Coil Sizing Inlet Air Temperature [C], 16.70000
 Component Sizing Information, AirTerminal:SingleDuct:VAV:Reheat, CORE_MID VAV BOX COMPONENT, Design Size Reheat Coil Sizing Inlet Air Humidity Ratio [kgWater/kgDryAir], 8.00000E-003
 Component Sizing Information, Coil:Heating:Water, CORE_MID VAV BOX REHEAT COIL, Design Size Rated Capacity [W], 424918.85266
 Component Sizing Information, Coil:Heating:Water, CORE_MID VAV BOX REHEAT COIL, Design Size Maximum Water Flow Rate [m3/s], 9.30349E-003
 Component Sizing Information, Coil:Heating:Water, CORE_MID VAV BOX REHEAT COIL, Design Size U-Factor Times Area Value [W/K], 8180.72065
Water Heating Coil Capacity Information,Coil:Heating:Water,CORE_MID VAV BOX REHEAT COIL,425826.70
 Component Sizing Information, AirTerminal:SingleDuct:VAV:Reheat, CORE_TOP VAV BOX COMPONENT, Design Size Maximum Air Flow Rate [m3/s], 10.24081
 Component Sizing Information, AirTerminal:SingleDuct:VAV:Reheat, CORE_TOP VAV BOX COMPONENT, Design Size Constant Minimum Air Flow Fraction, 0.20000
 Component Sizing Information, AirTerminal:SingleDuct:VAV:Reheat, CORE_TOP VAV BOX COMPONENT, User-Specified Constant Minimum Air Flow Fraction, 0.30000
 Component Sizing Information, AirTerminal:SingleDuct:VAV:Reheat, CORE_TOP VAV BOX COMPONENT, Design Size Minimum Air Flow Rate [m3/s], 3.07224
 Component Sizing Information, AirTerminal:SingleDuct:VAV:Reheat, CORE_TOP VAV BOX COMPONENT, Design Size Maximum Flow per Zone Floor Area during Reheat [m3/s-m2], 1.21321E-003
 Component Sizing Information, AirTerminal:SingleDuct:VAV:Reheat, CORE_TOP VAV BOX COMPONENT, Design Size Maximum Flow Fraction during Reheat [], 0.30000
 Component Sizing Information, AirTerminal:SingleDuct:VAV:Reheat, CORE_TOP VAV BOX COMPONENT, Design Size Maximum Reheat Water Flow Rate [m3/s], 3.31902E-003
 Component Sizing Information, AirTerminal:SingleDuct:VAV:Reheat, CORE_TOP VAV BOX COMPONENT, Design Size Reheat Coil Sizing Air Volume Flow Rate [m3/s], 3.79651
 Component Sizing Information, AirTerminal:SingleDuct:VAV:Reheat, CORE_TOP VAV BOX COMPONENT, Design Size Reheat Coil Sizing Inlet Air Temperature [C], 16.70000
 Component Sizing Information, AirTerminal:SingleDuct:VAV:Reheat, CORE_TOP VAV BOX COMPONENT, Design Size Reheat Coil Sizing Inlet Air Humidity Ratio [kgWater/kgDryAir], 8.00000E-003
 Component Sizing Information, Coil:Heating:Water, CORE_TOP VAV BOX REHEAT COIL, Design Size Rated Capacity [W], 151589.95122
 Component Sizing Information, Coil:Heating:Water, CORE_TOP VAV BOX REHEAT COIL, Design Size Maximum Water Flow Rate [m3/s], 3.31902E-003
 Component Sizing Information, Coil:Heating:Water, CORE_TOP VAV BOX REHEAT COIL, Design Size U-Factor Times Area Value [W/K], 3712.06024
Water Heating Coil Capacity Information,Coil:Heating:Water,CORE_TOP VAV BOX REHEAT COIL,141722.10
 Component Sizing Information, AirTerminal:SingleDuct:VAV:Reheat, PERIMETER_BOT_ZN_1 VAV BOX COMPONENT, Design Size Maximum Air Flow Rate [m3/s], 1.69134
 Component Sizing Information, AirTerminal:SingleDuct:VAV:Reheat, PERIMETER_BOT_ZN_1 VAV BOX COMPONENT, Design Size Constant Minimum Air Flow Fraction, 0.20000
 Component Sizing Information, AirTerminal:SingleDuct:VAV:Reheat, PERIMETER_BOT_ZN_1 VAV BOX COMPONENT, User-Specified Constant Minimum Air Flow Fraction, 0.30000
 Component Sizing Information, AirTerminal:SingleDuct:VAV:Reheat, PERIMETER_BOT_ZN_1 VAV BOX COMPONENT, Design Size Minimum Air Flow Rate [m3/s], 0.50740
 Component Sizing Information, AirTerminal:SingleDuct:VAV:Reheat, PERIMETER_BOT_ZN_1 VAV BOX COMPONENT, Design Size Maximum Flow per Zone Floor Area during Reheat [m3/s-m2], 1.61893E-003
 Component Sizing Information, AirTerminal:SingleDuct:VAV:Reheat, PERIMETER_BOT_ZN_1 VAV BOX COMPONENT, Design Size Maximum Flow Fraction during Reheat [], 0.30000
 Component Sizing Information, AirTerminal:SingleDuct:VAV:Reheat, PERIMETER_BOT_ZN_1 VAV BOX COMPONENT, Design Size Maximum Reheat Water Flow Rate [m3/s], 8.74010E-004
 Component Sizing Information, AirTerminal:SingleDuct:VAV:Reheat, PERIMETER_BOT_ZN_1 VAV BOX COMPONENT, Design Size Reheat Coil Sizing Air Volume Flow Rate [m3/s], 1.00020
 Component Sizing Information, AirTerminal:SingleDuct:VAV:Reheat, PERIMETER_BOT_ZN_1 VAV BOX COMPONENT, Design Size Reheat Coil Sizing Inlet Air Temperature [C], 16.70000
 Component Sizing Information, AirTerminal:SingleDuct:VAV:Reheat, PERIMETER_BOT_ZN_1 VAV BOX COMPONENT, Design Size Reheat Coil Sizing Inlet Air Humidity Ratio [kgWater/kgDryAir], 8.00000E-003
 Component Sizing Information, Coil:Heating:Water, PERIMETER_BOT_ZN_1 VAV BOX REHEAT COIL, Design Size Rated Capacity [W], 39918.74872
 Component Sizing Information, Coil:Heating:Water, PERIMETER_BOT_ZN_1 VAV BOX REHEAT COIL, Design Size Maximum Water Flow Rate [m3/s], 8.74010E-004
 Component Sizing Information, Coil:Heating:Water, PERIMETER_BOT_ZN_1 VAV BOX REHEAT COIL, Design Size U-Factor Times Area Value [W/K], 977.30074
Water Heating Coil Capacity Information,Coil:Heating:Water,PERIMETER_BOT_ZN_1 VAV BOX REHEAT COIL,30283.65
 Component Sizing Information, AirTerminal:SingleDuct:VAV:Reheat, PERIMETER_BOT_ZN_2 VAV BOX COMPONENT, Design Size Maximum Air Flow Rate [m3/s], 1.97192
 Component Sizing Information, AirTerminal:SingleDuct:VAV:Reheat, PERIMETER_BOT_ZN_2 VAV BOX COMPONENT, Design Size Constant Minimum Air Flow Fraction, 0.20000
 Component Sizing Information, AirTerminal:SingleDuct:VAV:Reheat, PERIMETER_BOT_ZN_2 VAV BOX COMPONENT, User-Specified Constant Minimum Air Flow Fraction, 0.30000
 Component Sizing Information, AirTerminal:SingleDuct:VAV:Reheat, PERIMETER_BOT_ZN_2 VAV BOX COMPONENT, Design Size Minimum Air Flow Rate [m3/s], 0.59157
 Component Sizing Information, AirTerminal:SingleDuct:VAV:Reheat, PERIMETER_BOT_ZN_2 VAV BOX COMPONENT, Design Size Maximum Flow per Zone Floor Area during Reheat [m3/s-m2], 2.92895E-003
 Component Sizing Information, AirTerminal:SingleDuct:VAV:Reheat, PERIMETER_BOT_ZN_2 VAV BOX COMPONENT, Design Size Maximum Flow Fraction during Reheat [], 0.30000
 Component Sizing Information, AirTerminal:SingleDuct:VAV:Reheat, PERIMETER_BOT_ZN_2 VAV BOX COMPONENT, Design Size Maximum Reheat Water Flow Rate [m3/s], 5.81689E-004
 Component Sizing Information, AirTerminal:SingleDuct:VAV:Reheat, PERIMETER_BOT_ZN_2 VAV BOX COMPONENT, Design Size Reheat Coil Sizing Air Volume Flow Rate [m3/s], 0.66567
 Component Sizing Information, AirTerminal:SingleDuct:VAV:Reheat, PERIMETER_BOT_ZN_2 VAV BOX COMPONENT, Design Size Reheat Coil Sizing Inlet Air Temperature [C], 16.70000
 Component Sizing Information, AirTerminal:SingleDuct:VAV:Reheat, PERIMETER_BOT_ZN_2 VAV BOX COMPONENT, Design Size Reheat Coil Sizing Inlet Air Humidity Ratio [kgWater/kgDryAir], 8.00000E-003
 Component Sizing Information, Coil:Heating:Water, PERIMETER_BOT_ZN_2 VAV BOX REHEAT COIL, Design Size Rated Capacity [W], 26567.54784
 Component Sizing Information, Coil:Heating:Water, PERIMETER_BOT_ZN_2 VAV BOX REHEAT COIL, Design Size Maximum Water Flow Rate [m3/s], 5.81689E-004
 Component Sizing Information, Coil:Heating:Water, PERIMETER_BOT_ZN_2 VAV BOX REHEAT COIL, Design Size U-Factor Times Area Value [W/K], 650.43316
Water Heating Coil Capacity Information,Coil:Heating:Water,PERIMETER_BOT_ZN_2 VAV BOX REHEAT COIL,25657.73
 Component Sizing Information, AirTerminal:SingleDuct:VAV:Reheat, PERIMETER_BOT_ZN_3 VAV BOX COMPONENT, Design Size Maximum Air Flow Rate [m3/s], 1.48656
 Component Sizing Information, AirTerminal:SingleDuct:VAV:Reheat, PERIMETER_BOT_ZN_3 VAV BOX COMPONENT, Design Size Constant Minimum Air Flow Fraction, 0.20000
 Component Sizing Information, AirTerminal:SingleDuct:VAV:Reheat, PERIMETER_BOT_ZN_3 VAV BOX COMPONENT, User-Specified Constant Minimum Air Flow Fraction, 0.30000
 Component Sizing Information, AirTerminal:SingleDuct:VAV:Reheat, PERIMETER_BOT_ZN_3 VAV BOX COMPONENT, Design Size Minimum Air Flow Rate [m3/s], 0.44597
 Component Sizing Information, AirTerminal:SingleDuct:VAV:Reheat, PERIMETER_BOT_ZN_3 VAV BOX COMPONENT, Design Size Maximum Flow per Zone Floor Area during Reheat [m3/s-m2], 1.42294E-003
 Component Sizing Information, AirTerminal:SingleDuct:VAV:Reheat, PERIMETER_BOT_ZN_3 VAV BOX COMPONENT, Design Size Maximum Flow Fraction during Reheat [], 0.30000
[...]
 Component Sizing Information, AirLoopHVAC, VAV_3, Sum of Air Terminal Minimum Heating Flow Rates [m3/s], 5.27356
 Component Sizing Information, AirLoopHVAC, VAV_3, Sum of Air Terminal Maximum Flow Rates [m3/s], 17.57854
 Component Sizing Information, AirLoopHVAC, VAV_3, Adjusted Heating Design Air Flow Rate [m3/s], 8.71569
 Component Sizing Information, AirLoopHVAC, VAV_3, Adjusted Cooling Design Air Flow Rate [m3/s], 17.57854
 Component Sizing Information, AirLoopHVAC, VAV_3, Adjusted Main Design Air Flow Rate [m3/s], 17.57854
 Component Sizing Information, AirLoopHVAC, VAV_3, User Heating Air Flow Ratio [], 0.30000
 Component Sizing Information, AirLoopHVAC, VAV_3, Calculated Heating Air Flow Ratio [], 0.49581
 Component Sizing Information, AirLoopHVAC, VAV_5, Sum of Air Terminal Maximum Heating Flow Rates [m3/s], 2.89339
 Component Sizing Information, AirLoopHVAC, VAV_5, Sum of Air Terminal Minimum Heating Flow Rates [m3/s], 2.89339
 Component Sizing Information, AirLoopHVAC, VAV_5, Sum of Air Terminal Maximum Flow Rates [m3/s], 9.64464
 Component Sizing Information, AirLoopHVAC, VAV_5, Adjusted Heating Design Air Flow Rate [m3/s], 2.89339
 Component Sizing Information, AirLoopHVAC, VAV_5, Adjusted Cooling Design Air Flow Rate [m3/s], 9.64464
 Component Sizing Information, AirLoopHVAC, VAV_5, Adjusted Main Design Air Flow Rate [m3/s], 9.64464
 Component Sizing Information, AirLoopHVAC, VAV_5, User Heating Air Flow Ratio [], 0.30000
 Component Sizing Information, AirLoopHVAC, VAV_5, Calculated Heating Air Flow Ratio [], 0.30000
 Component Sizing Information, AirLoopHVAC, VAV_1, Design Supply Air Flow Rate [m3/s], 17.76474
 Component Sizing Information, AirLoopHVAC, VAV_2, Design Supply Air Flow Rate [m3/s], 185.08326
 Component Sizing Information, AirLoopHVAC, VAV_3, Design Supply Air Flow Rate [m3/s], 17.57854
 Component Sizing Information, AirLoopHVAC, VAV_5, Design Supply Air Flow Rate [m3/s], 9.64464
 Component Sizing Information, Controller:OutdoorAir, VAV_1_OA_CONTROLLER, Maximum Outdoor Air Flow Rate [m3/s], 17.76474
 Component Sizing Information, Controller:OutdoorAir, VAV_1_OA_CONTROLLER, Minimum Outdoor Air Flow Rate [m3/s], 2.39714
 Component Sizing Information, Coil:Cooling:Water, VAV_1_COOLC, Design Size Design Inlet Air Temperature [C], 24.09019
 Component Sizing Information, Coil:Cooling:Water, VAV_1_COOLC, Design Size Design Inlet Water Temperature [C], 6.67000
 Component Sizing Information, Coil:Cooling:Water, VAV_1_COOLC, Design Size Design Outlet Air Temperature [C], 11.40126
 Component Sizing Information, Coil:Cooling:Water, VAV_1_COOLC, Design Size Design Inlet Air Humidity Ratio, 1.00233E-002
 Component Sizing Information, Coil:Cooling:Water, VAV_1_COOLC, Design Size Design Outlet Air Humidity Ratio, 8.50000E-003
 Component Sizing Information, Coil:Cooling:Water, VAV_1_COOLC, Design Size Design Coil Load [W], 351539.92477
 Component Sizing Information, Coil:Cooling:Water, VAV_1_COOLC, Design Size Design Water Flow Rate [m3/s], 1.25562E-002
 Component Sizing Information, Coil:Cooling:Water, VAV_1_COOLC, Design Size Design Air Flow Rate [m3/s], 17.76474
! <Water Cooling Coil Capacity Information>,Component Type,Name,Nominal Total Capacity {W},Nominal Sensible Capacity {W},Nominal Latent Capacity {W},Nominal Sensible Heat Ratio, Nominal Coil UA Value {W/C}, Nominal Coil Surface Area {m2}
Water Cooling Coil Capacity Information,Coil:Cooling:Water,VAV_1_COOLC,462676.42,317096.50,145579.91,0.69,68036.19,690.06
 Component Sizing Information, Coil:Heating:Water, VAV_1_HEATC, Design Size Rated Capacity [W], 90806.51968
 Component Sizing Information, Coil:Heating:Water, VAV_1_HEATC, Design Size Maximum Water Flow Rate [m3/s], 1.98818E-003
 Component Sizing Information, Coil:Heating:Water, VAV_1_HEATC, Design Size U-Factor Times Area Value [W/K], 1407.42737
Water Heating Coil Capacity Information,Coil:Heating:Water,VAV_1_HEATC,74687.31
 Component Sizing Information, Fan:VariableVolume, VAV_1_FAN, Design Size Maximum Flow Rate [m3/s], 17.76474
 Component Sizing Information, Controller:WaterCoil, VAV_1_COOLC_CONTROLLER, Maximum Actuated Flow [m3/s], 1.25562E-002
 Component Sizing Information, Controller:WaterCoil, VAV_1_COOLC_CONTROLLER, Controller Convergence Tolerance, 3.79248E-005
 Component Sizing Information, Controller:WaterCoil, VAV_1_HEATC_CONTROLLER, Maximum Actuated Flow [m3/s], 1.98818E-003
 Component Sizing Information, Controller:OutdoorAir, VAV_2_OA_CONTROLLER, Maximum Outdoor Air Flow Rate [m3/s], 185.08326
 Component Sizing Information, Controller:OutdoorAir, VAV_2_OA_CONTROLLER, Minimum Outdoor Air Flow Rate [m3/s], 23.97138
 Component Sizing Information, Coil:Cooling:Water, VAV_2_COOLC, Design Size Design Inlet Air Temperature [C], 24.09596
 Component Sizing Information, Coil:Cooling:Water, VAV_2_COOLC, Design Size Design Inlet Water Temperature [C], 6.67000
 Component Sizing Information, Coil:Cooling:Water, VAV_2_COOLC, Design Size Design Outlet Air Temperature [C], 11.40113
 Component Sizing Information, Coil:Cooling:Water, VAV_2_COOLC, Design Size Design Inlet Air Humidity Ratio, 9.96938E-003
 Component Sizing Information, Coil:Cooling:Water, VAV_2_COOLC, Design Size Design Outlet Air Humidity Ratio, 8.50000E-003
 Component Sizing Information, Coil:Cooling:Water, VAV_2_COOLC, Design Size Design Coil Load [W], 3633990.91519
 Component Sizing Information, Coil:Cooling:Water, VAV_2_COOLC, Design Size Design Water Flow Rate [m3/s], 0.12980
 Component Sizing Information, Coil:Cooling:Water, VAV_2_COOLC, Design Size Design Air Flow Rate [m3/s], 185.08326
Water Cooling Coil Capacity Information,Coil:Cooling:Water,VAV_2_COOLC,4796590.31,3293231.89,1503358.41,0.69,703604.73,7136.35
 Component Sizing Information, Coil:Heating:Water, VAV_2_HEATC, Design Size Rated Capacity [W], 896783.59225
 Component Sizing Information, Coil:Heating:Water, VAV_2_HEATC, Design Size Maximum Water Flow Rate [m3/s], 1.96348E-002
 Component Sizing Information, Coil:Heating:Water, VAV_2_HEATC, Design Size U-Factor Times Area Value [W/K], 13995.24809
Water Heating Coil Capacity Information,Coil:Heating:Water,VAV_2_HEATC,744592.69
 Component Sizing Information, Fan:VariableVolume, VAV_2_FAN, Design Size Maximum Flow Rate [m3/s], 185.08326
 Component Sizing Information, Controller:WaterCoil, VAV_2_COOLC_CONTROLLER, Maximum Actuated Flow [m3/s], 0.12980
 Component Sizing Information, Controller:WaterCoil, VAV_2_COOLC_CONTROLLER, Controller Convergence Tolerance, 3.66871E-006
 Component Sizing Information, Controller:WaterCoil, VAV_2_HEATC_CONTROLLER, Maximum Actuated Flow [m3/s], 1.96348E-002
 Component Sizing Information, Controller:OutdoorAir, VAV_3_OA_CONTROLLER, Maximum Outdoor Air Flow Rate [m3/s], 17.57854
 Component Sizing Information, Controller:OutdoorAir, VAV_3_OA_CONTROLLER, Minimum Outdoor Air Flow Rate [m3/s], 2.39714
 Component Sizing Information, Coil:Cooling:Water, VAV_3_COOLC, Design Size Design Inlet Air Temperature [C], 24.11795
 Component Sizing Information, Coil:Cooling:Water, VAV_3_COOLC, Design Size Design Inlet Water Temperature [C], 6.67000
 Component Sizing Information, Coil:Cooling:Water, VAV_3_COOLC, Design Size Design Outlet Air Temperature [C], 11.40133
 Component Sizing Information, Coil:Cooling:Water, VAV_3_COOLC, Design Size Design Inlet Air Humidity Ratio, 1.00481E-002
 Component Sizing Information, Coil:Cooling:Water, VAV_3_COOLC, Design Size Design Outlet Air Humidity Ratio, 8.50000E-003
 Component Sizing Information, Coil:Cooling:Water, VAV_3_COOLC, Design Size Design Coil Load [W], 349745.98675
 Component Sizing Information, Coil:Cooling:Water, VAV_3_COOLC, Design Size Design Water Flow Rate [m3/s], 1.24921E-002
 Component Sizing Information, Coil:Cooling:Water, VAV_3_COOLC, Design Size Design Air Flow Rate [m3/s], 17.57854
Water Cooling Coil Capacity Information,Coil:Cooling:Water,VAV_3_COOLC,458777.62,314164.44,144613.17,0.68,67326.96,682.87
 Component Sizing Information, Coil:Heating:Water, VAV_3_HEATC, Design Size Rated Capacity [W], 91079.50684
 Component Sizing Information, Coil:Heating:Water, VAV_3_HEATC, Design Size Maximum Water Flow Rate [m3/s], 1.99416E-003
 Component Sizing Information, Coil:Heating:Water, VAV_3_HEATC, Design Size U-Factor Times Area Value [W/K], 1409.09914
Water Heating Coil Capacity Information,Coil:Heating:Water,VAV_3_HEATC,74725.48
 Component Sizing Information, Fan:VariableVolume, VAV_3_FAN, Design Size Maximum Flow Rate [m3/s], 17.57854
 Component Sizing Information, Controller:WaterCoil, VAV_3_COOLC_CONTROLLER, Maximum Actuated Flow [m3/s], 1.24921E-002
 Component Sizing Information, Controller:WaterCoil, VAV_3_COOLC_CONTROLLER, Controller Convergence Tolerance, 3.81193E-005
 Component Sizing Information, Controller:WaterCoil, VAV_3_HEATC_CONTROLLER, Maximum Actuated Flow [m3/s], 1.99416E-003
 Component Sizing Information, Controller:OutdoorAir, VAV_5_OA_CONTROLLER, Maximum Outdoor Air Flow Rate [m3/s], 9.64464
 Component Sizing Information, Controller:OutdoorAir, VAV_5_OA_CONTROLLER, Minimum Outdoor Air Flow Rate [m3/s], 1.19857
 Component Sizing Information, Coil:Cooling:Water, VAV_5_COOLC, Design Size Design Inlet Air Temperature [C], 23.77206
 Component Sizing Information, Coil:Cooling:Water, VAV_5_COOLC, Design Size Design Inlet Water Temperature [C], 6.67000
 Component Sizing Information, Coil:Cooling:Water, VAV_5_COOLC, Design Size Design Outlet Air Temperature [C], 11.40040
 Component Sizing Information, Coil:Cooling:Water, VAV_5_COOLC, Design Size Design Inlet Air Humidity Ratio, 9.68231E-003
 Component Sizing Information, Coil:Cooling:Water, VAV_5_COOLC, Design Size Design Outlet Air Humidity Ratio, 8.50000E-003
 Component Sizing Information, Coil:Cooling:Water, VAV_5_COOLC, Design Size Design Coil Load [W], 177329.56155
 Component Sizing Information, Coil:Cooling:Water, VAV_5_COOLC, Design Size Design Water Flow Rate [m3/s], 6.33380E-003
 Component Sizing Information, Coil:Cooling:Water, VAV_5_COOLC, Design Size Design Air Flow Rate [m3/s], 9.64464
Water Cooling Coil Capacity Information,Coil:Cooling:Water,VAV_5_COOLC,244602.64,169464.94,75137.70,0.69,36999.18,375.27
 Component Sizing Information, Coil:Heating:Water, VAV_5_HEATC, Design Size Rated Capacity [W], 44214.07030
 Component Sizing Information, Coil:Heating:Water, VAV_5_HEATC, Design Size Maximum Water Flow Rate [m3/s], 9.68055E-004
 Component Sizing Information, Coil:Heating:Water, VAV_5_HEATC, Design Size U-Factor Times Area Value [W/K], 694.71554
Water Heating Coil Capacity Information,Coil:Heating:Water,VAV_5_HEATC,37052.35
 Component Sizing Information, Fan:VariableVolume, VAV_5_FAN, Design Size Maximum Flow Rate [m3/s], 9.64464
 Component Sizing Information, Controller:WaterCoil, VAV_5_COOLC_CONTROLLER, Maximum Actuated Flow [m3/s], 6.33380E-003
 Component Sizing Information, Controller:WaterCoil, VAV_5_COOLC_CONTROLLER, Controller Convergence Tolerance, 7.51824E-005
 Component Sizing Information, Controller:WaterCoil, VAV_5_HEATC_CONTROLLER, Maximum Actuated Flow [m3/s], 9.68055E-004
Water Heater Information,WaterHeater:Mixed,SWHSYS1 WATER HEATER,0.7571,845000.0,0.893,0.5838
 Component Sizing Information, PlantLoop, COOLSYS1, Maximum Loop Flow Rate [m3/s], 0.12894
 Component Sizing Information, PlantLoop, COOLSYS1, Plant Loop Volume [m3], 15.47326
 Component Sizing Information, Pump:VariableSpeed, COOLSYS1 PUMP, Design Flow Rate [m3/s], 0.12894
 Component Sizing Information, Pump:VariableSpeed, COOLSYS1 PUMP, Design Power Consumption [W], 32943.50673
 Component Sizing Information, Chiller:Electric:ReformulatedEIR, COOLSYS1 CHILLER 1, Design Size Reference Chilled Water Flow Rate [m3/s], 6.44719E-002
 Component Sizing Information, Chiller:Electric:ReformulatedEIR, COOLSYS1 CHILLER 1, Design Size Reference Capacity [W], 1806872.06355
 Component Sizing Information, Chiller:Electric:ReformulatedEIR, COOLSYS1 CHILLER 1, Design Size Reference Condenser Water Flow Rate [m3/s], 9.12365E-002
! <Chiller Standard Rating Information>, Component Type, Component Name, IPLV in SI Units {W/W}, IPLV in IP Units {Btu/W-h}
 Chiller Standard Rating Information, Chiller:Electric:ReformulatedEIR, COOLSYS1 CHILLER 1, 6.65, 22.68
 Component Sizing Information, Chiller:Electric:ReformulatedEIR, COOLSYS1 CHILLER 2, Design Size Reference Chilled Water Flow Rate [m3/s], 6.44719E-002
 Component Sizing Information, Chiller:Electric:ReformulatedEIR, COOLSYS1 CHILLER 2, Design Size Reference Capacity [W], 1806872.06355
 Component Sizing Information, Chiller:Electric:ReformulatedEIR, COOLSYS1 CHILLER 2, Design Size Reference Condenser Water Flow Rate [m3/s], 9.12365E-002
 Chiller Standard Rating Information, Chiller:Electric:ReformulatedEIR, COOLSYS1 CHILLER 2, 6.65, 22.68
 Component Sizing Information, PlantLoop, HEATSYS1, Maximum Loop Flow Rate [m3/s], 7.73437E-002
 Component Sizing Information, PlantLoop, HEATSYS1, Plant Loop Volume [m3], 9.28124
 Component Sizing Information, Pump:VariableSpeed, HEATSYS1 PUMP, Design Flow Rate [m3/s], 7.73437E-002
 Component Sizing Information, Pump:VariableSpeed, HEATSYS1 PUMP, Design Power Consumption [W], 20324.90474
 Component Sizing Information, Boiler:HotWater, HEATSYS1 BOILER, Design Size Nominal Capacity [W], 3532525.14143
 Component Sizing Information, Boiler:HotWater, HEATSYS1 BOILER, Design Size Design Water Flow Rate [m3/s], 7.73437E-002
 Component Sizing Information, PlantLoop, SWHSYS1, Maximum Loop Flow Rate [m3/s], 2.68800E-004
 Component Sizing Information, PlantLoop, SWHSYS1, Plant Loop Volume [m3], 3.22560E-002
 Component Sizing Information, Pump:VariableSpeed, SWHSYS1 PUMP, Design Flow Rate [m3/s], 2.68800E-004
 Component Sizing Information, Pump:VariableSpeed, SWHSYS1 PUMP, Design Power Consumption [W], 72.71466
 Component Sizing Information, WaterHeater:Mixed, SWHSYS1 WATER HEATER, Use Side Design Flow Rate [m3/s], 2.68800E-004
 Component Sizing Information, CondenserLoop, TOWERWATERSYS, Maximum Loop Flow Rate [m3/s], 0.18247
 Component Sizing Information, CondenserLoop, TOWERWATERSYS, Condenser Loop Volume [m3], 21.89675
 Component Sizing Information, Pump:ConstantSpeed, TOWERWATERSYS PUMP, Design Flow Rate [m3/s], 0.18247
 Component Sizing Information, Pump:ConstantSpeed, TOWERWATERSYS PUMP, Design Power Consumption [W], 48227.05981
 Component Sizing Information, CoolingTower:SingleSpeed, TOWERWATERSYS COOLTOWER, Design Water Flow Rate [m3/s], 0.18247
 Component Sizing Information, CoolingTower:SingleSpeed, TOWERWATERSYS COOLTOWER, Fan Power at Design Air Flow Rate [W], 44843.06168
 Component Sizing Information, CoolingTower:SingleSpeed, TOWERWATERSYS COOLTOWER, Design Air Flow Rate [m3/s], 120.86060
 Component Sizing Information, CoolingTower:SingleSpeed, TOWERWATERSYS COOLTOWER, U-Factor Times Area Value at Design Air Flow Rate [W/C], 258046.00205
 Component Sizing Information, CoolingTower:SingleSpeed, TOWERWATERSYS COOLTOWER, Free Convection Regime Air Flow Rate [m3/s], 12.08606
 Component Sizing Information, CoolingTower:SingleSpeed, TOWERWATERSYS COOLTOWER, Free Convection U-Factor Times Area Value [W/K], 25804.60020
! <Environment>,Environment Name,Environment Type, Start Date, End Date, Start DayOfWeek, Duration {#days}, Source:Start DayOfWeek,  Use Daylight Saving, Use Holidays, Apply Weekend Holiday Rule,  Use Rain Values, Use Snow Values
! <Environment:Special Days>, Special Day Name, Special Day Type, Source, Start Date, Duration {#days}
! <Environment:Daylight Saving>, Daylight Saving Indicator, Source, Start Date, End Date
! <Environment:WarmupDays>, NumberofWarmupDays
Environment,RUNPERIOD 1,WeatherFileRunPeriod,01/01/2017,12/31/2017,Sunday,365,Use RunPeriod Specified Day,No,No,No,Yes,Yes
Environment:Daylight Saving,Yes,InputFile,03/12,11/05
Environment:Special Days,NEW YEARS DAY,Holiday,InputFile,01/01,  1
Environment:Special Days,VETERANS DAY,Holiday,InputFile,11/11,  1
Environment:Special Days,CHRISTMAS,Holiday,InputFile,12/25,  1
Environment:Special Days,INDEPENDENCE DAY,Holiday,InputFile,07/04,  1
Environment:Special Days,MLK DAY,Holiday,InputFile,01/16,  1
Environment:Special Days,PRESIDENTS DAY,Holiday,InputFile,02/20,  1
Environment:Special Days,MEMORIAL DAY,Holiday,InputFile,05/29,  1
Environment:Special Days,LABOR DAY,Holiday,InputFile,09/04,  1
Environment:Special Days,COLUMBUS DAY,Holiday,InputFile,10/09,  1
Environment:Special Days,THANKSGIVING,Holiday,InputFile,11/23,  1
Environment:WarmupDays,  9
! <Warmup Convergence Information>,Zone Name,Environment Type/Name,Average Warmup Temperature Difference {deltaC},Std Dev Warmup Temperature Difference {deltaC},Max Temperature Pass/Fail Convergence,Min Temperature Pass/Fail Convergence,Average Warmup Load Difference {W},Std Dev Warmup Load Difference {W},Heating Load Pass/Fail Convergence,Cooling Load Pass/Fail Convergence
 Warmup Convergence Information,BASEMENT,RunPeriod: RUNPERIOD 1,1.0740359382E-003,8.3356854061E-004,Pass,Pass,0.0000000000,0.0000000000,Pass,Pass
 Warmup Convergence Information,CORE_BOTTOM,RunPeriod: RUNPERIOD 1,0.2079237754,0.1449867101,Pass,Pass,0.4900143571,0.4917269802,Pass,Pass
 Warmup Convergence Information,CORE_MID,RunPeriod: RUNPERIOD 1,6.5560052235E-002,5.9819546505E-002,Pass,Pass,0.4891707036,0.4951005553,Pass,Pass
 Warmup Convergence Information,CORE_TOP,RunPeriod: RUNPERIOD 1,0.4087036253,0.4245177508,Pass,Pass,0.5600873536,0.4830636932,Pass,Pass
 Warmup Convergence Information,GROUNDFLOOR_PLENUM,RunPeriod: RUNPERIOD 1,0.1473758452,0.1056687841,Pass,Pass,0.4996181483,0.4757482235,Pass,Pass
 Warmup Convergence Information,MIDFLOOR_PLENUM,RunPeriod: RUNPERIOD 1,0.2045074560,0.1542389672,Pass,Pass,0.5057016147,0.4806456403,Pass,Pass
 Warmup Convergence Information,PERIMETER_BOT_ZN_1,RunPeriod: RUNPERIOD 1,0.7014859414,0.8777749841,Pass,Pass,0.6700997401,1.5390529652,Pass,Pass
 Warmup Convergence Information,PERIMETER_BOT_ZN_2,RunPeriod: RUNPERIOD 1,0.9058501405,0.9953974717,Pass,Pass,0.5048377551,0.4770754630,Pass,Pass
 Warmup Convergence Information,PERIMETER_BOT_ZN_3,RunPeriod: RUNPERIOD 1,0.9610154226,0.9946533859,Pass,Pass,0.5051994006,0.4770362979,Pass,Pass
 Warmup Convergence Information,PERIMETER_BOT_ZN_4,RunPeriod: RUNPERIOD 1,0.9732468636,1.0534895393,Pass,Pass,0.5046139206,0.4772160432,Pass,Pass
 Warmup Convergence Information,PERIMETER_MID_ZN_1,RunPeriod: RUNPERIOD 1,0.8955082181,1.0608427551,Pass,Pass,1.0139040588,5.9908905383,Pass,Pass
 Warmup Convergence Information,PERIMETER_MID_ZN_2,RunPeriod: RUNPERIOD 1,1.1318527563,1.1927342372,Pass,Pass,0.4992954871,0.4790949601,Pass,Pass
 Warmup Convergence Information,PERIMETER_MID_ZN_3,RunPeriod: RUNPERIOD 1,1.1849722822,1.1788214552,Pass,Pass,0.4910603853,0.4820624836,Pass,Pass
 Warmup Convergence Information,PERIMETER_MID_ZN_4,RunPeriod: RUNPERIOD 1,1.2042401355,1.2614598728,Pass,Pass,0.4938013701,0.4804254446,Pass,Pass
 Warmup Convergence Information,PERIMETER_TOP_ZN_1,RunPeriod: RUNPERIOD 1,1.2279764723,1.3437230379,Pass,Pass,0.4934767326,0.4768400636,Pass,Pass
 Warmup Convergence Information,PERIMETER_TOP_ZN_2,RunPeriod: RUNPERIOD 1,1.4612116848,1.5150104994,Pass,Pass,0.4945573908,0.4708118707,Pass,Pass
 Warmup Convergence Information,PERIMETER_TOP_ZN_3,RunPeriod: RUNPERIOD 1,1.5209394594,1.4577792396,Pass,Pass,0.5034125854,0.4674885071,Pass,Pass
 Warmup Convergence Information,PERIMETER_TOP_ZN_4,RunPeriod: RUNPERIOD 1,1.5354569764,1.5962121038,Pass,Pass,0.4989376827,0.4684226426,Pass,Pass
 Warmup Convergence Information,TOPFLOOR_PLENUM,RunPeriod: RUNPERIOD 1,0.9771685398,0.7059609292,Pass,Pass,0.4874430370,0.4930106418,Pass,Pass
! <Program Control Information:Threads/Parallel Sims>, Threading Supported,Maximum Number of Threads, Env Set Threads (OMP_NUM_THREADS), EP Env Set Threads (EP_OMP_NUM_THREADS), IDF Set Threads, Number of Threads Used (Interior Radiant Exchange), Number Nominal Surfaces, Number Parallel Sims
Program Control:Threads/Parallel Sims, No,1, N/A, N/A, N/A, N/A, N/A, N/A
End of Data
