Program Version,EnergyPlus, Version 9.2.0-921312fa1d, YMD=2020.12.22 17:58,
   ************* Beginning Zone Sizing Calculations
   ** Warning ** CheckUsedConstructions: There are 2 nominally unused constructions in input.
   **   ~~~   ** For explicit details on each unused construction, use Output:Diagnostics,DisplayExtraWarnings;
   ** Warning ** Calculated design cooling load for zone=FRONT_ENTRY is zero.
   **   ~~~   ** Check Sizing:Zone and ZoneControl:Thermostat inputs.
   ************* Beginning System Sizing Calculations
   ** Warning ** ManageSizing: For a plant sizing run, there must be at least 1 Sizing:Plant object input. SimulationControl Plant Sizing option ignored.
   ** Warning ** Output:Meter: invalid Key Name="EXTERIOREQUIPMENT:ELECTRICITY" - not found.
   ** Warning ** Output:Meter: invalid Key Name="PUMPS:ELECTRICITY" - not found.
   ** Warning ** Output:Meter: invalid Key Name="HEATREJECTION:ELECTRICITY" - not found.
   ** Warning ** Output:Meter: invalid Key Name="HUMIDIFIER:ELECTRICITY" - not found.
   ** Warning ** Output:Meter: invalid Key Name="REFRIGERATION:ELECTRICITY" - not found.
   ** Warning ** Output:Meter: invalid Key Name="WATERSYSTEMS:ELECTRICITY" - not found.
   ** Warning ** Output:Meter: invalid Key Name="INTERIOREQUIPMENT:GAS" - not found.
   ** Warning ** Output:Meter: invalid Key Name="WATERSYSTEMS:GAS" - not found.
   ** Warning ** Output:Meter: invalid Key Name="HEATREJECTION:ENERGYTRANSFER" - not found.
   ** Warning ** Output:Meter: invalid Key Name="HEATING:DISTRICTHEATING" - not found.
   ** Warning ** Output:Meter: invalid Key Name="COOLING:DISTRICTCOOLING" - not found.
   ** Warning ** Output:Meter: invalid Key Name="COOLING:GAS" - not found.
   ** Warning ** Output:Meter: invalid Key Name="WATERSYSTEMS:ENERGYTRANSFER" - not found.
   ** Warning ** Output:Meter: invalid Key Name="REFRIGERATION:ENERGYTRANSFER" - not found.
   ** Warning ** Output:Meter: invalid Key Name="BASEBOARD:ENERGYTRANSFER" - not found.
   ************* Testing Individual Branch Integrity
   ************* All Branches passed integrity testing
   ************* Testing Individual Supply Air Path Integrity
   ************* All Supply Air Paths passed integrity testing
   ************* Testing Individual Return Air Path Integrity
   ************* All Return Air Paths passed integrity testing
   ************* No node connection errors were found.
   ************* Beginning Simulation
   ************* Simulation Error Summary *************
   ** Warning ** The following Report Variables were requested but not generated -- check.rdd file
   **   ~~~   ** Either the IDF did not contain these elements, the variable name is misspelled,
   **   ~~~   ** or the requested variable is an advanced output which requires Output : Diagnostics, DisplayAdvancedReportVariables;
   ************* Key=*, VarName=ZONE IDEAL LOADS ZONE TOTAL COOLING ENERGY, Frequency=Hourly
   ************* Key=*, VarName=ZONE IDEAL LOADS ZONE TOTAL HEATING ENERGY, Frequency=Hourly
   ************* Key=*, VarName=HEAT EXCHANGER TOTAL HEATING RATE, Frequency=Hourly
   ************* Key=*, VarName=HEAT EXCHANGER SENSIBLE EFFECTIVENESS, Frequency=Hourly
   ************* Key=*, VarName=HEAT EXCHANGER LATENT EFFECTIVENESS, Frequency=Hourly
   ************* Key=*, VarName=WATER HEATER HEATING ENERGY, Frequency=Hourly
   *************
   ************* ===== Final Error Summary =====
   ************* The following error categories occurred.  Consider correcting or noting.
   ************* Nominally Unused Constructions
   ************* ..The nominally unused constructions warning is provided to alert you to potential conditions that can cause
   ************* ..extra time during simulation. Each construction is calculated by the algorithm indicated in the HeatBalanceAlgorithm
   ************* ..object. You may remove the constructions indicated (when you use the DisplayExtraWarnings option).
   *************
   ************* EnergyPlus Warmup Error Summary. During Warmup: 0 Warning; 0 Severe Errors.
   ************* EnergyPlus Sizing Error Summary. During Sizing: 3 Warning; 0 Severe Errors.
   ************* EnergyPlus Completed Successfully-- 19 Warning; 0 Severe Errors; Elapsed Time=00hr 00min 24.35sec
