Program Version,EnergyPlus, Version 9.2.0-921312fa1d, YMD=2020.12.22 17:51,
   ************* Beginning Zone Sizing Calculations
   ** Warning ** CheckUsedConstructions: There are 1 nominally unused constructions in input.
   **   ~~~   ** For explicit details on each unused construction, use Output:Diagnostics,DisplayExtraWarnings;
   ************* Beginning System Sizing Calculations
   ************* Beginning Plant Sizing Calculations
   ** Warning ** CalcTwoSpeedDXCoilStandardRating: Did not find an appropriate fan associated with DX coil named = "PSZ_1:1_COOLC DXCOIL". Standard Ratings will not be calculated.
   ** Warning ** CalcTwoSpeedDXCoilStandardRating: Did not find an appropriate fan associated with DX coil named = "PSZ_1:2_COOLC DXCOIL". Standard Ratings will not be calculated.
   ** Warning ** CalcTwoSpeedDXCoilStandardRating: Did not find an appropriate fan associated with DX coil named = "PSZ_1:3_COOLC DXCOIL". Standard Ratings will not be calculated.
   ** Warning ** CalcTwoSpeedDXCoilStandardRating: Did not find an appropriate fan associated with DX coil named = "PSZ_1:4_COOLC DXCOIL". Standard Ratings will not be calculated.
   ** Warning ** CalcTwoSpeedDXCoilStandardRating: Did not find an appropriate fan associated with DX coil named = "PSZ_1:5_COOLC DXCOIL". Standard Ratings will not be calculated.
   ** Warning ** CalcTwoSpeedDXCoilStandardRating: Did not find an appropriate fan associated with DX coil named = "PSZ_2:1_COOLC DXCOIL". Standard Ratings will not be calculated.
   ** Warning ** CalcTwoSpeedDXCoilStandardRating: Did not find an appropriate fan associated with DX coil named = "PSZ_2:2_COOLC DXCOIL". Standard Ratings will not be calculated.
   ** Warning ** CalcTwoSpeedDXCoilStandardRating: Did not find an appropriate fan associated with DX coil named = "PSZ_2:3_COOLC DXCOIL". Standard Ratings will not be calculated.
   ** Warning ** CalcTwoSpeedDXCoilStandardRating: Did not find an appropriate fan associated with DX coil named = "PSZ_2:4_COOLC DXCOIL". Standard Ratings will not be calculated.
   ** Warning ** CalcTwoSpeedDXCoilStandardRating: Did not find an appropriate fan associated with DX coil named = "PSZ_2:5_COOLC DXCOIL". Standard Ratings will not be calculated.
   ** Warning ** CalcTwoSpeedDXCoilStandardRating: Did not find an appropriate fan associated with DX coil named = "PSZ_3:1_COOLC DXCOIL". Standard Ratings will not be calculated.
   ** Warning ** CalcTwoSpeedDXCoilStandardRating: Did not find an appropriate fan associated with DX coil named = "PSZ_3:2_COOLC DXCOIL". Standard Ratings will not be calculated.
   ** Warning ** CalcTwoSpeedDXCoilStandardRating: Did not find an appropriate fan associated with DX coil named = "PSZ_3:3_COOLC DXCOIL". Standard Ratings will not be calculated.
   ** Warning ** CalcTwoSpeedDXCoilStandardRating: Did not find an appropriate fan associated with DX coil named = "PSZ_3:4_COOLC DXCOIL". Standard Ratings will not be calculated.
   ** Warning ** CalcTwoSpeedDXCoilStandardRating: Did not find an appropriate fan associated with DX coil named = "PSZ_3:5_COOLC DXCOIL". Standard Ratings will not be calculated.
   ** Warning ** Output:Meter: invalid Key Name="EXTERIOREQUIPMENT:ELECTRICITY" - not found.
   ** Warning ** Output:Meter: invalid Key Name="HEATREJECTION:ELECTRICITY" - not found.
   ** Warning ** Output:Meter: invalid Key Name="HUMIDIFIER:ELECTRICITY" - not found.
   ** Warning ** Output:Meter: invalid Key Name="REFRIGERATION:ELECTRICITY" - not found.
   ** Warning ** Output:Meter: invalid Key Name="WATERSYSTEMS:ELECTRICITY" - not found.
   ** Warning ** Output:Meter: invalid Key Name="INTERIOREQUIPMENT:GAS" - not found.
   ** Warning ** Output:Meter: invalid Key Name="HEATREJECTION:ENERGYTRANSFER" - not found.
   ** Warning ** Output:Meter: invalid Key Name="HEATING:DISTRICTHEATING" - not found.
   ** Warning ** Output:Meter: invalid Key Name="COOLING:DISTRICTCOOLING" - not found.
   ** Warning ** Output:Meter: invalid Key Name="COOLING:GAS" - not found.
   ** Warning ** Output:Meter: invalid Key Name="REFRIGERATION:ENERGYTRANSFER" - not found.
   ** Warning ** Output:Meter: invalid Key Name="BASEBOARD:ENERGYTRANSFER" - not found.
   ************* Testing Individual Branch Integrity
   ************* All Branches passed integrity testing
   ************* Testing Individual Supply Air Path Integrity
   ************* All Supply Air Paths passed integrity testing
   ************* Testing Individual Return Air Path Integrity
   ************* All Return Air Paths passed integrity testing
   ************* No node connection errors were found.
   ************* Beginning Simulation
   ************* Simulation Error Summary *************
   ** Warning ** The following Report Variables were requested but not generated -- check.rdd file
   **   ~~~   ** Either the IDF did not contain these elements, the variable name is misspelled,
   **   ~~~   ** or the requested variable is an advanced output which requires Output : Diagnostics, DisplayAdvancedReportVariables;
   ************* Key=*, VarName=ZONE IDEAL LOADS ZONE TOTAL COOLING ENERGY, Frequency=Hourly
   ************* Key=*, VarName=ZONE IDEAL LOADS ZONE TOTAL HEATING ENERGY, Frequency=Hourly
   ************* Key=*, VarName=HEAT EXCHANGER TOTAL HEATING RATE, Frequency=Hourly
   ************* Key=*, VarName=HEAT EXCHANGER SENSIBLE EFFECTIVENESS, Frequency=Hourly
   ************* Key=*, VarName=HEAT EXCHANGER LATENT EFFECTIVENESS, Frequency=Hourly
   *************
   ************* ===== Final Error Summary =====
   ************* The following error categories occurred.  Consider correcting or noting.
   ************* Nominally Unused Constructions
   ************* ..The nominally unused constructions warning is provided to alert you to potential conditions that can cause
   ************* ..extra time during simulation. Each construction is calculated by the algorithm indicated in the HeatBalanceAlgorithm
   ************* ..object. You may remove the constructions indicated (when you use the DisplayExtraWarnings option).
   *************
   ************* EnergyPlus Warmup Error Summary. During Warmup: 0 Warning; 0 Severe Errors.
   ************* EnergyPlus Sizing Error Summary. During Sizing: 1 Warning; 0 Severe Errors.
   ************* EnergyPlus Completed Successfully-- 29 Warning; 0 Severe Errors; Elapsed Time=00hr 01min  7.51sec
