Program Version,EnergyPlus, Version 9.2.0-921312fa1d, YMD=2020.12.22 17:51
! <Version>, Version ID
 Version, 9.2
! <Timesteps per Hour>, #TimeSteps, Minutes per TimeStep {minutes}
 Timesteps per Hour,  6, 10
! <System Convergence Limits>, Minimum System TimeStep {minutes}, Max HVAC Iterations, Minimum Plant Iterations, Maximum Plant Iterations
 System Convergence Limits, 2, 25, 2, 8
! <Simulation Control>, Do Zone Sizing, Do System Sizing, Do Plant Sizing, Do Design Days, Do Weather Simulation, Do HVAC Sizing Simulation
 Simulation Control, Yes, Yes, Yes, No, Yes, No
! <Output Reporting Tolerances>, Tolerance for Time Heating Setpoint Not Met, Tolerance for Zone Cooling Setpoint Not Met Time
 Output Reporting Tolerances, 0.556, 0.556, 
! <Site:GroundTemperature:BuildingSurface>,Jan{C},Feb{C},Mar{C},Apr{C},May{C},Jun{C},Jul{C},Aug{C},Sep{C},Oct{C},Nov{C},Dec{C}
 Site:GroundTemperature:BuildingSurface,  19.53,  19.50,  19.54,  19.60,  20.00,  21.64,  22.23,  22.38,  21.45,  20.12,  19.80,  19.63
! <Site:GroundTemperature:FCfactorMethod>,Jan{C},Feb{C},Mar{C},Apr{C},May{C},Jun{C},Jul{C},Aug{C},Sep{C},Oct{C},Nov{C},Dec{C}
 Site:GroundTemperature:FCfactorMethod,  -1.89,  -3.06,  -0.99,   2.23,  10.68,  17.20,  21.60,  22.94,  20.66,  15.60,   8.83,   2.56
! <Site:GroundTemperature:Shallow>,Jan{C},Feb{C},Mar{C},Apr{C},May{C},Jun{C},Jul{C},Aug{C},Sep{C},Oct{C},Nov{C},Dec{C}
 Site:GroundTemperature:Shallow,  13.00,  13.00,  13.00,  13.00,  13.00,  13.00,  13.00,  13.00,  13.00,  13.00,  13.00,  13.00
! <Site:GroundTemperature:Deep>,Jan{C},Feb{C},Mar{C},Apr{C},May{C},Jun{C},Jul{C},Aug{C},Sep{C},Oct{C},Nov{C},Dec{C}
 Site:GroundTemperature:Deep,  16.00,  16.00,  16.00,  16.00,  16.00,  16.00,  16.00,  16.00,  16.00,  16.00,  16.00,  16.00
! <Site:GroundReflectance>,Jan{dimensionless},Feb{dimensionless},Mar{dimensionless},Apr{dimensionless},May{dimensionless},Jun{dimensionless},Jul{dimensionless},Aug{dimensionless},Sep{dimensionless},Oct{dimensionless},Nov{dimensionless},Dec{dimensionless}
 Site:GroundReflectance,  0.20,  0.20,  0.20,  0.20,  0.20,  0.20,  0.20,  0.20,  0.20,  0.20,  0.20,  0.20
! <Site:GroundReflectance:SnowModifier>, Normal, Daylighting {dimensionless}
 Site:GroundReflectance:SnowModifier,   1.000,   1.000
! <Site:GroundReflectance:Snow>,Jan{dimensionless},Feb{dimensionless},Mar{dimensionless},Apr{dimensionless},May{dimensionless},Jun{dimensionless},Jul{dimensionless},Aug{dimensionless},Sep{dimensionless},Oct{dimensionless},Nov{dimensionless},Dec{dimensionless}
 Site:GroundReflectance:Snow,  0.20,  0.20,  0.20,  0.20,  0.20,  0.20,  0.20,  0.20,  0.20,  0.20,  0.20,  0.20
! <Site:GroundReflectance:Snow:Daylighting>,Jan{dimensionless},Feb{dimensionless},Mar{dimensionless},Apr{dimensionless},May{dimensionless},Jun{dimensionless},Jul{dimensionless},Aug{dimensionless},Sep{dimensionless},Oct{dimensionless},Nov{dimensionless},Dec{dimensionless}
 Site:GroundReflectance:Snow:Daylighting,  0.20,  0.20,  0.20,  0.20,  0.20,  0.20,  0.20,  0.20,  0.20,  0.20,  0.20,  0.20
! <Environment:Weather Station>,Wind Sensor Height Above Ground {m},Wind Speed Profile Exponent {},Wind Speed Profile Boundary Layer Thickness {m},Air Temperature Sensor Height Above Ground {m},Wind Speed Modifier Coefficient-Internal,Temperature Modifier Coefficient-Internal
Environment:Weather Station,10.000,0.140,270.000,1.500,1.586,9.750E-003
! <Site:Location>, Location Name, Latitude {N+/S- Deg}, Longitude {E+/W- Deg},  Time Zone Number {GMT+/-}, Elevation {m},  Standard Pressure at Elevation {Pa}, Standard RhoAir at Elevation
Site:Location,Chicago Ohare Intl Ap IL USA TMY3 WMO#=725300,41.98,-87.92,-6.00,201.00,98934,1.1759
! <Site Water Mains Temperature Information>,Calculation Method{},Water Mains Temperature Schedule Name{},Annual Average Outdoor Air Temperature{C},Maximum Difference In Monthly Average Outdoor Air Temperatures{deltaC},Fixed Default Water Mains Temperature{C}
Site Water Mains Temperature Information,Correlation,NA,9.69,28.10,NA
! Schedule Details Report=Hourly =====================
! <ScheduleType>,Name,Limited? {Yes/No},Minimum,Maximum,Continuous? {Yes/No - Discrete}
! <DaySchedule>,Name,ScheduleType,Interpolated {Yes/No},Time (HH:MM) =>,01:00,02:00,03:00,04:00,05:00,06:00,07:00,08:00,09:00,10:00,11:00,12:00,13:00,14:00,15:00,16:00,17:00,18:00,19:00,20:00,21:00,22:00,23:00,24:00
! <WeekSchedule>,Name,Sunday,Monday,Tuesday,Wednesday,Thursday,Friday,Saturday,Holiday,SummerDesignDay,WinterDesignDay,CustomDay1,CustomDay2
! <Schedule>,Name,ScheduleType,{Until Date,WeekSchedule}** Repeated until Dec 31
ScheduleTypeLimits,ANY NUMBER,No,N/A,N/A,N/A
ScheduleTypeLimits,FRACTION,Average,0.00,1.00,Yes
ScheduleTypeLimits,TEMPERATURE,Average,-60.00,200.00,Yes
ScheduleTypeLimits,ON/OFF,Average,0,1,No
ScheduleTypeLimits,CONTROL TYPE,Average,0,4,No
ScheduleTypeLimits,HUMIDITY,Average,10.00,90.00,Yes
ScheduleTypeLimits,NUMBER,No,N/A,N/A,N/A
DaySchedule,ALWAYS_ON_dy_1,ON/OFF,No,Values:,1.00,1.00,1.00,1.00,1.00,1.00,1.00,1.00,1.00,1.00,1.00,1.00,1.00,1.00,1.00,1.00,1.00,1.00,1.00,1.00,1.00,1.00,1.00,1.00
DaySchedule,ACTIVITY_SCH_dy_1,ANY NUMBER,No,Values:,120.00,120.00,120.00,120.00,120.00,120.00,120.00,120.00,120.00,120.00,120.00,120.00,120.00,120.00,120.00,120.00,120.00,120.00,120.00,120.00,120.00,120.00,120.00,120.00
DaySchedule,AIR_VELO_SCH_dy_1,ANY NUMBER,No,Values:,0.20,0.20,0.20,0.20,0.20,0.20,0.20,0.20,0.20,0.20,0.20,0.20,0.20,0.20,0.20,0.20,0.20,0.20,0.20,0.20,0.20,0.20,0.20,0.20
DaySchedule,BLDG_ELEVATORS_dy_1,FRACTION,No,Values:,0.00,0.00,0.00,0.00,0.00,0.00,0.00,0.35,0.69,0.43,0.37,0.43,0.58,0.48,0.37,0.37,0.46,0.62,0.12,4.00E-002,4.00E-002,0.00,0.00,0.00
DaySchedule,BLDG_ELEVATORS_dy_2,FRACTION,No,Values:,0.00,0.00,0.00,0.00,0.00,0.00,0.00,0.16,0.14,0.21,0.18,0.25,0.21,0.13,8.00E-002,4.00E-002,5.00E-002,6.00E-002,0.00,0.00,0.00,0.00,0.00,0.00
DaySchedule,BLDG_ELEVATORS_dy_3,FRACTION,No,Values:,0.00,0.00,0.00,0.00,0.00,0.00,0.00,0.00,0.00,0.00,0.00,0.00,0.00,0.00,0.00,0.00,0.00,0.00,0.00,0.00,0.00,0.00,0.00,0.00
DaySchedule,BLDG_OCC_SCH_dy_1,FRACTION,No,Values:,0.00,0.00,0.00,0.00,0.00,0.00,1.00,1.00,1.00,1.00,1.00,1.00,1.00,1.00,1.00,1.00,1.00,1.00,1.00,1.00,1.00,1.00,5.00E-002,5.00E-002
DaySchedule,BLDG_OCC_SCH_dy_2,FRACTION,No,Values:,0.00,0.00,0.00,0.00,0.00,0.00,0.10,0.20,0.95,0.95,0.95,0.95,0.50,0.95,0.95,0.95,0.95,0.70,0.40,0.40,0.10,0.10,5.00E-002,5.00E-002
DaySchedule,BLDG_OCC_SCH_dy_3,FRACTION,No,Values:,0.00,0.00,0.00,0.00,0.00,0.00,0.10,0.10,0.50,0.50,0.50,0.50,0.50,0.50,0.10,0.10,0.10,0.00,0.00,0.00,0.00,0.00,0.00,0.00
DaySchedule,BLDG_OCC_SCH_dy_4,FRACTION,No,Values:,0.00,0.00,0.00,0.00,0.00,0.00,0.00,0.00,0.00,0.00,0.00,0.00,0.00,0.00,0.00,0.00,0.00,0.00,0.00,0.00,0.00,0.00,0.00,0.00
DaySchedule,BLDG_LIGHT_SCH_dy_1,FRACTION,No,Values:,5.00E-002,5.00E-002,5.00E-002,5.00E-002,5.00E-002,0.10,0.10,0.30,0.90,0.90,0.90,0.90,0.90,0.90,0.90,0.90,0.90,0.70,0.50,0.50,0.30,0.30,0.10,5.00E-002
DaySchedule,BLDG_LIGHT_SCH_dy_2,FRACTION,No,Values:,5.00E-002,5.00E-002,5.00E-002,5.00E-002,5.00E-002,5.00E-002,0.10,0.10,0.50,0.50,0.50,0.50,0.50,0.50,0.15,0.15,0.15,5.00E-002,5.00E-002,5.00E-002,5.00E-002,5.00E-002,5.00E-002,5.00E-002
DaySchedule,BLDG_LIGHT_SCH_dy_3,FRACTION,No,Values:,1.00,1.00,1.00,1.00,1.00,1.00,1.00,1.00,1.00,1.00,1.00,1.00,1.00,1.00,1.00,1.00,1.00,1.00,1.00,1.00,1.00,1.00,1.00,1.00
DaySchedule,BLDG_LIGHT_SCH_dy_4,FRACTION,No,Values:,0.00,0.00,0.00,0.00,0.00,0.00,0.00,0.00,0.00,0.00,0.00,0.00,0.00,0.00,0.00,0.00,0.00,0.00,0.00,0.00,0.00,0.00,0.00,0.00
DaySchedule,BLDG_LIGHT_SCH_dy_5,FRACTION,No,Values:,5.00E-002,5.00E-002,5.00E-002,5.00E-002,5.00E-002,5.00E-002,5.00E-002,5.00E-002,5.00E-002,5.00E-002,5.00E-002,5.00E-002,5.00E-002,5.00E-002,5.00E-002,5.00E-002,5.00E-002,5.00E-002,5.00E-002,5.00E-002,5.00E-002,5.00E-002,5.00E-002,5.00E-002
DaySchedule,BLDG_EQUIP_SCH_dy_1,FRACTION,No,Values:,0.40,0.40,0.40,0.40,0.40,0.40,0.40,0.40,0.90,0.90,0.90,0.90,0.80,0.90,0.90,0.90,0.90,0.80,0.60,0.60,0.50,0.50,0.40,0.40
DaySchedule,BLDG_EQUIP_SCH_dy_2,FRACTION,No,Values:,0.30,0.30,0.30,0.30,0.30,0.30,0.40,0.40,0.50,0.50,0.50,0.50,0.50,0.50,0.35,0.35,0.35,0.30,0.30,0.30,0.30,0.30,0.30,0.30
DaySchedule,BLDG_EQUIP_SCH_dy_3,FRACTION,No,Values:,1.00,1.00,1.00,1.00,1.00,1.00,1.00,1.00,1.00,1.00,1.00,1.00,1.00,1.00,1.00,1.00,1.00,1.00,1.00,1.00,1.00,1.00,1.00,1.00
DaySchedule,BLDG_EQUIP_SCH_dy_4,FRACTION,No,Values:,0.00,0.00,0.00,0.00,0.00,0.00,0.00,0.00,0.00,0.00,0.00,0.00,0.00,0.00,0.00,0.00,0.00,0.00,0.00,0.00,0.00,0.00,0.00,0.00
DaySchedule,BLDG_EQUIP_SCH_dy_5,FRACTION,No,Values:,0.30,0.30,0.30,0.30,0.30,0.30,0.30,0.30,0.30,0.30,0.30,0.30,0.30,0.30,0.30,0.30,0.30,0.30,0.30,0.30,0.30,0.30,0.30,0.30
DaySchedule,CLOTHING_SCH_dy_1,ANY NUMBER,No,Values:,1.00,1.00,1.00,1.00,1.00,1.00,1.00,1.00,1.00,1.00,1.00,1.00,1.00,1.00,1.00,1.00,1.00,1.00,1.00,1.00,1.00,1.00,1.00,1.00
DaySchedule,CLOTHING_SCH_dy_2,ANY NUMBER,No,Values:,0.50,0.50,0.50,0.50,0.50,0.50,0.50,0.50,0.50,0.50,0.50,0.50,0.50,0.50,0.50,0.50,0.50,0.50,0.50,0.50,0.50,0.50,0.50,0.50
DaySchedule,CLOTHING_SCH_dy_3,ANY NUMBER,No,Values:,1.00,1.00,1.00,1.00,1.00,1.00,1.00,1.00,1.00,1.00,1.00,1.00,1.00,1.00,1.00,1.00,1.00,1.00,1.00,1.00,1.00,1.00,1.00,1.00
DaySchedule,INFIL_QUARTER_ON_SCH_dy_1,FRACTION,No,Values:,1.00,1.00,1.00,1.00,1.00,1.00,0.25,0.25,0.25,0.25,0.25,0.25,0.25,0.25,0.25,0.25,0.25,0.25,0.25,0.25,0.25,0.25,1.00,1.00
DaySchedule,INFIL_QUARTER_ON_SCH_dy_2,FRACTION,No,Values:,1.00,1.00,1.00,1.00,1.00,1.00,0.25,0.25,0.25,0.25,0.25,0.25,0.25,0.25,0.25,0.25,0.25,0.25,1.00,1.00,1.00,1.00,1.00,1.00
DaySchedule,INFIL_QUARTER_ON_SCH_dy_3,FRACTION,No,Values:,1.00,1.00,1.00,1.00,1.00,1.00,1.00,1.00,1.00,1.00,1.00,1.00,1.00,1.00,1.00,1.00,1.00,1.00,1.00,1.00,1.00,1.00,1.00,1.00
DaySchedule,WORK_EFF_SCH_dy_1,FRACTION,No,Values:,0.00,0.00,0.00,0.00,0.00,0.00,0.00,0.00,0.00,0.00,0.00,0.00,0.00,0.00,0.00,0.00,0.00,0.00,0.00,0.00,0.00,0.00,0.00,0.00
DaySchedule,DUAL ZONE CONTROL TYPE SCHED_dy_1,CONTROL TYPE,No,Values:,4.00,4.00,4.00,4.00,4.00,4.00,4.00,4.00,4.00,4.00,4.00,4.00,4.00,4.00,4.00,4.00,4.00,4.00,4.00,4.00,4.00,4.00,4.00,4.00
DaySchedule,CLGSETP_SCH_dy_1,TEMPERATURE,No,Values:,26.70,26.70,26.70,26.70,26.70,26.70,24.00,24.00,24.00,24.00,24.00,24.00,24.00,24.00,24.00,24.00,24.00,24.00,24.00,24.00,24.00,24.00,26.70,26.70
DaySchedule,CLGSETP_SCH_dy_2,TEMPERATURE,No,Values:,26.70,26.70,26.70,26.70,26.70,26.70,24.00,24.00,24.00,24.00,24.00,24.00,24.00,24.00,24.00,24.00,24.00,24.00,26.70,26.70,26.70,26.70,26.70,26.70
DaySchedule,CLGSETP_SCH_dy_3,TEMPERATURE,No,Values:,26.70,26.70,26.70,26.70,26.70,26.70,26.70,26.70,26.70,26.70,26.70,26.70,26.70,26.70,26.70,26.70,26.70,26.70,26.70,26.70,26.70,26.70,26.70,26.70
DaySchedule,CLGSETP_SCH_dy_4,TEMPERATURE,No,Values:,26.70,26.70,26.70,26.70,26.70,26.70,26.70,26.70,26.70,26.70,26.70,26.70,26.70,26.70,26.70,26.70,26.70,26.70,26.70,26.70,26.70,26.70,26.70,26.70
DaySchedule,HTGSETP_SCH_dy_1,TEMPERATURE,No,Values:,15.60,15.60,15.60,15.60,15.60,15.60,21.00,21.00,21.00,21.00,21.00,21.00,21.00,21.00,21.00,21.00,21.00,21.00,21.00,21.00,21.00,21.00,15.60,15.60
DaySchedule,HTGSETP_SCH_dy_2,TEMPERATURE,No,Values:,15.60,15.60,15.60,15.60,15.60,15.60,15.60,15.60,15.60,15.60,15.60,15.60,15.60,15.60,15.60,15.60,15.60,15.60,15.60,15.60,15.60,15.60,15.60,15.60
DaySchedule,HTGSETP_SCH_dy_3,TEMPERATURE,No,Values:,15.60,15.60,15.60,15.60,15.60,15.60,21.00,21.00,21.00,21.00,21.00,21.00,21.00,21.00,21.00,21.00,21.00,21.00,15.60,15.60,15.60,15.60,15.60,15.60
DaySchedule,HTGSETP_SCH_dy_4,TEMPERATURE,No,Values:,21.00,21.00,21.00,21.00,21.00,21.00,21.00,21.00,21.00,21.00,21.00,21.00,21.00,21.00,21.00,21.00,21.00,21.00,21.00,21.00,21.00,21.00,21.00,21.00
DaySchedule,HTGSETP_SCH_dy_5,TEMPERATURE,No,Values:,15.60,15.60,15.60,15.60,15.60,15.60,15.60,15.60,15.60,15.60,15.60,15.60,15.60,15.60,15.60,15.60,15.60,15.60,15.60,15.60,15.60,15.60,15.60,15.60
DaySchedule,HVACOPERATIONSCHD_dy_1,ON/OFF,No,Values:,0.00,0.00,0.00,0.00,0.00,0.00,1.00,1.00,1.00,1.00,1.00,1.00,1.00,1.00,1.00,1.00,1.00,1.00,1.00,1.00,1.00,1.00,0.00,0.00
DaySchedule,HVACOPERATIONSCHD_dy_2,ON/OFF,No,Values:,0.00,0.00,0.00,0.00,0.00,0.00,1.00,1.00,1.00,1.00,1.00,1.00,1.00,1.00,1.00,1.00,1.00,1.00,0.00,0.00,0.00,0.00,0.00,0.00
DaySchedule,HVACOPERATIONSCHD_dy_3,ON/OFF,No,Values:,0.00,0.00,0.00,0.00,0.00,0.00,0.00,0.00,0.00,0.00,0.00,0.00,0.00,0.00,0.00,0.00,0.00,0.00,0.00,0.00,0.00,0.00,0.00,0.00
DaySchedule,MINOA_MOTORIZEDDAMPER_SCHED_dy_1,FRACTION,No,Values:,0.00,0.00,0.00,0.00,0.00,0.00,0.00,1.00,1.00,1.00,1.00,1.00,1.00,1.00,1.00,1.00,1.00,1.00,1.00,1.00,1.00,1.00,0.00,0.00
DaySchedule,MINOA_MOTORIZEDDAMPER_SCHED_dy_2,FRACTION,No,Values:,0.00,0.00,0.00,0.00,0.00,0.00,0.00,1.00,1.00,1.00,1.00,1.00,1.00,1.00,1.00,1.00,1.00,1.00,0.00,0.00,0.00,0.00,0.00,0.00
DaySchedule,MINOA_MOTORIZEDDAMPER_SCHED_dy_3,FRACTION,No,Values:,0.00,0.00,0.00,0.00,0.00,0.00,0.00,0.00,0.00,0.00,0.00,0.00,0.00,0.00,0.00,0.00,0.00,0.00,0.00,0.00,0.00,0.00,0.00,0.00
DaySchedule,BLDG_SWH_SCH_dy_1,FRACTION,No,Values:,5.00E-002,5.00E-002,5.00E-002,5.00E-002,5.00E-002,8.00E-002,7.00E-002,0.19,0.35,0.38,0.39,0.47,0.57,0.54,0.34,0.33,0.44,0.26,0.21,0.15,0.17,8.00E-002,5.00E-002,5.00E-002
DaySchedule,BLDG_SWH_SCH_dy_2,FRACTION,No,Values:,5.00E-002,5.00E-002,5.00E-002,5.00E-002,5.00E-002,8.00E-002,7.00E-002,0.11,0.15,0.21,0.19,0.23,0.20,0.19,0.15,0.13,0.14,7.00E-002,7.00E-002,7.00E-002,7.00E-002,9.00E-002,5.00E-002,5.00E-002
DaySchedule,BLDG_SWH_SCH_dy_3,FRACTION,No,Values:,4.00E-002,4.00E-002,4.00E-002,4.00E-002,4.00E-002,7.00E-002,4.00E-002,4.00E-002,4.00E-002,4.00E-002,4.00E-002,6.00E-002,6.00E-002,9.00E-002,6.00E-002,4.00E-002,4.00E-002,4.00E-002,4.00E-002,4.00E-002,4.00E-002,7.00E-002,4.00E-002,4.00E-002
DaySchedule,WATER EQUIPMENT LATENT FRACT SCHED_dy_1,FRACTION,No,Values:,5.00E-002,5.00E-002,5.00E-002,5.00E-002,5.00E-002,5.00E-002,5.00E-002,5.00E-002,5.00E-002,5.00E-002,5.00E-002,5.00E-002,5.00E-002,5.00E-002,5.00E-002,5.00E-002,5.00E-002,5.00E-002,5.00E-002,5.00E-002,5.00E-002,5.00E-002,5.00E-002,5.00E-002
DaySchedule,WATER EQUIPMENT SENSIBLE FRACT SCHED_dy_1,FRACTION,No,Values:,0.20,0.20,0.20,0.20,0.20,0.20,0.20,0.20,0.20,0.20,0.20,0.20,0.20,0.20,0.20,0.20,0.20,0.20,0.20,0.20,0.20,0.20,0.20,0.20
DaySchedule,WATER EQUIPMENT HOT SUPPLY TEMP SCHED_dy_1,TEMPERATURE,No,Values:,43.30,43.30,43.30,43.30,43.30,43.30,43.30,43.30,43.30,43.30,43.30,43.30,43.30,43.30,43.30,43.30,43.30,43.30,43.30,43.30,43.30,43.30,43.30,43.30
DaySchedule,WATER EQUIPMENT TEMP SCHED_dy_1,TEMPERATURE,No,Values:,43.30,43.30,43.30,43.30,43.30,43.30,43.30,43.30,43.30,43.30,43.30,43.30,43.30,43.30,43.30,43.30,43.30,43.30,43.30,43.30,43.30,43.30,43.30,43.30
DaySchedule,SWHSYS1 WATER HEATER AMBIENT TEMPERATURE SCHEDULE NAME_dy_1,TEMPERATURE,No,Values:,22.00,22.00,22.00,22.00,22.00,22.00,22.00,22.00,22.00,22.00,22.00,22.00,22.00,22.00,22.00,22.00,22.00,22.00,22.00,22.00,22.00,22.00,22.00,22.00
DaySchedule,SWHSYS1 WATER HEATER SETPOINT TEMPERATURE SCHEDULE NAME_dy_1,TEMPERATURE,No,Values:,60.00,60.00,60.00,60.00,60.00,60.00,60.00,60.00,60.00,60.00,60.00,60.00,60.00,60.00,60.00,60.00,60.00,60.00,60.00,60.00,60.00,60.00,60.00,60.00
DaySchedule,SWHSYS1-LOOP-TEMP-SCHEDULE_dy_1,TEMPERATURE,No,Values:,60.00,60.00,60.00,60.00,60.00,60.00,60.00,60.00,60.00,60.00,60.00,60.00,60.00,60.00,60.00,60.00,60.00,60.00,60.00,60.00,60.00,60.00,60.00,60.00
Schedule:Week:Daily,ALWAYS_ON_wk_1,ALWAYS_ON_dy_1,ALWAYS_ON_dy_1,ALWAYS_ON_dy_1,ALWAYS_ON_dy_1,ALWAYS_ON_dy_1,ALWAYS_ON_dy_1,ALWAYS_ON_dy_1,ALWAYS_ON_dy_1,ALWAYS_ON_dy_1,ALWAYS_ON_dy_1,ALWAYS_ON_dy_1,ALWAYS_ON_dy_1
Schedule:Week:Daily,ACTIVITY_SCH_wk_1,ACTIVITY_SCH_dy_1,ACTIVITY_SCH_dy_1,ACTIVITY_SCH_dy_1,ACTIVITY_SCH_dy_1,ACTIVITY_SCH_dy_1,ACTIVITY_SCH_dy_1,ACTIVITY_SCH_dy_1,ACTIVITY_SCH_dy_1,ACTIVITY_SCH_dy_1,ACTIVITY_SCH_dy_1,ACTIVITY_SCH_dy_1,ACTIVITY_SCH_dy_1
Schedule:Week:Daily,AIR_VELO_SCH_wk_1,AIR_VELO_SCH_dy_1,AIR_VELO_SCH_dy_1,AIR_VELO_SCH_dy_1,AIR_VELO_SCH_dy_1,AIR_VELO_SCH_dy_1,AIR_VELO_SCH_dy_1,AIR_VELO_SCH_dy_1,AIR_VELO_SCH_dy_1,AIR_VELO_SCH_dy_1,AIR_VELO_SCH_dy_1,AIR_VELO_SCH_dy_1,AIR_VELO_SCH_dy_1
Schedule:Week:Daily,BLDG_ELEVATORS_wk_1,BLDG_ELEVATORS_dy_3,BLDG_ELEVATORS_dy_1,BLDG_ELEVATORS_dy_1,BLDG_ELEVATORS_dy_1,BLDG_ELEVATORS_dy_1,BLDG_ELEVATORS_dy_1,BLDG_ELEVATORS_dy_2,BLDG_ELEVATORS_dy_3,BLDG_ELEVATORS_dy_1,BLDG_ELEVATORS_dy_2,BLDG_ELEVATORS_dy_3,BLDG_ELEVATORS_dy_3
Schedule:Week:Daily,BLDG_OCC_SCH_wk_1,BLDG_OCC_SCH_dy_4,BLDG_OCC_SCH_dy_2,BLDG_OCC_SCH_dy_2,BLDG_OCC_SCH_dy_2,BLDG_OCC_SCH_dy_2,BLDG_OCC_SCH_dy_2,BLDG_OCC_SCH_dy_3,BLDG_OCC_SCH_dy_4,BLDG_OCC_SCH_dy_1,BLDG_OCC_SCH_dy_4,BLDG_OCC_SCH_dy_4,BLDG_OCC_SCH_dy_4
Schedule:Week:Daily,BLDG_LIGHT_SCH_wk_1,BLDG_LIGHT_SCH_dy_5,BLDG_LIGHT_SCH_dy_1,BLDG_LIGHT_SCH_dy_1,BLDG_LIGHT_SCH_dy_1,BLDG_LIGHT_SCH_dy_1,BLDG_LIGHT_SCH_dy_1,BLDG_LIGHT_SCH_dy_2,BLDG_LIGHT_SCH_dy_5,BLDG_LIGHT_SCH_dy_3,BLDG_LIGHT_SCH_dy_4,BLDG_LIGHT_SCH_dy_5,BLDG_LIGHT_SCH_dy_5
Schedule:Week:Daily,BLDG_EQUIP_SCH_wk_1,BLDG_EQUIP_SCH_dy_5,BLDG_EQUIP_SCH_dy_1,BLDG_EQUIP_SCH_dy_1,BLDG_EQUIP_SCH_dy_1,BLDG_EQUIP_SCH_dy_1,BLDG_EQUIP_SCH_dy_1,BLDG_EQUIP_SCH_dy_2,BLDG_EQUIP_SCH_dy_5,BLDG_EQUIP_SCH_dy_3,BLDG_EQUIP_SCH_dy_4,BLDG_EQUIP_SCH_dy_5,BLDG_EQUIP_SCH_dy_5
Schedule:Week:Daily,CLOTHING_SCH_wk_1,CLOTHING_SCH_dy_1,CLOTHING_SCH_dy_1,CLOTHING_SCH_dy_1,CLOTHING_SCH_dy_1,CLOTHING_SCH_dy_1,CLOTHING_SCH_dy_1,CLOTHING_SCH_dy_1,CLOTHING_SCH_dy_1,CLOTHING_SCH_dy_1,CLOTHING_SCH_dy_1,CLOTHING_SCH_dy_1,CLOTHING_SCH_dy_1
Schedule:Week:Daily,CLOTHING_SCH_wk_2,CLOTHING_SCH_dy_2,CLOTHING_SCH_dy_2,CLOTHING_SCH_dy_2,CLOTHING_SCH_dy_2,CLOTHING_SCH_dy_2,CLOTHING_SCH_dy_2,CLOTHING_SCH_dy_2,CLOTHING_SCH_dy_2,CLOTHING_SCH_dy_2,CLOTHING_SCH_dy_2,CLOTHING_SCH_dy_2,CLOTHING_SCH_dy_2
Schedule:Week:Daily,CLOTHING_SCH_wk_3,CLOTHING_SCH_dy_3,CLOTHING_SCH_dy_3,CLOTHING_SCH_dy_3,CLOTHING_SCH_dy_3,CLOTHING_SCH_dy_3,CLOTHING_SCH_dy_3,CLOTHING_SCH_dy_3,CLOTHING_SCH_dy_3,CLOTHING_SCH_dy_3,CLOTHING_SCH_dy_3,CLOTHING_SCH_dy_3,CLOTHING_SCH_dy_3
Schedule:Week:Daily,INFIL_QUARTER_ON_SCH_wk_1,INFIL_QUARTER_ON_SCH_dy_3,INFIL_QUARTER_ON_SCH_dy_1,INFIL_QUARTER_ON_SCH_dy_1,INFIL_QUARTER_ON_SCH_dy_1,INFIL_QUARTER_ON_SCH_dy_1,INFIL_QUARTER_ON_SCH_dy_1,INFIL_QUARTER_ON_SCH_dy_2,INFIL_QUARTER_ON_SCH_dy_3,INFIL_QUARTER_ON_SCH_dy_1,INFIL_QUARTER_ON_SCH_dy_2,INFIL_QUARTER_ON_SCH_dy_3,INFIL_QUARTER_ON_SCH_dy_3
Schedule:Week:Daily,WORK_EFF_SCH_wk_1,WORK_EFF_SCH_dy_1,WORK_EFF_SCH_dy_1,WORK_EFF_SCH_dy_1,WORK_EFF_SCH_dy_1,WORK_EFF_SCH_dy_1,WORK_EFF_SCH_dy_1,WORK_EFF_SCH_dy_1,WORK_EFF_SCH_dy_1,WORK_EFF_SCH_dy_1,WORK_EFF_SCH_dy_1,WORK_EFF_SCH_dy_1,WORK_EFF_SCH_dy_1
Schedule:Week:Daily,DUAL ZONE CONTROL TYPE SCHED_wk_1,DUAL ZONE CONTROL TYPE SCHED_dy_1,DUAL ZONE CONTROL TYPE SCHED_dy_1,DUAL ZONE CONTROL TYPE SCHED_dy_1,DUAL ZONE CONTROL TYPE SCHED_dy_1,DUAL ZONE CONTROL TYPE SCHED_dy_1,DUAL ZONE CONTROL TYPE SCHED_dy_1,DUAL ZONE CONTROL TYPE SCHED_dy_1,DUAL ZONE CONTROL TYPE SCHED_dy_1,DUAL ZONE CONTROL TYPE SCHED_dy_1,DUAL ZONE CONTROL TYPE SCHED_dy_1,DUAL ZONE CONTROL TYPE SCHED_dy_1,DUAL ZONE CONTROL TYPE SCHED_dy_1
Schedule:Week:Daily,CLGSETP_SCH_wk_1,CLGSETP_SCH_dy_4,CLGSETP_SCH_dy_1,CLGSETP_SCH_dy_1,CLGSETP_SCH_dy_1,CLGSETP_SCH_dy_1,CLGSETP_SCH_dy_1,CLGSETP_SCH_dy_2,CLGSETP_SCH_dy_4,CLGSETP_SCH_dy_1,CLGSETP_SCH_dy_3,CLGSETP_SCH_dy_4,CLGSETP_SCH_dy_4
Schedule:Week:Daily,HTGSETP_SCH_wk_1,HTGSETP_SCH_dy_5,HTGSETP_SCH_dy_1,HTGSETP_SCH_dy_1,HTGSETP_SCH_dy_1,HTGSETP_SCH_dy_1,HTGSETP_SCH_dy_1,HTGSETP_SCH_dy_3,HTGSETP_SCH_dy_5,HTGSETP_SCH_dy_2,HTGSETP_SCH_dy_4,HTGSETP_SCH_dy_5,HTGSETP_SCH_dy_5
Schedule:Week:Daily,HVACOPERATIONSCHD_wk_1,HVACOPERATIONSCHD_dy_3,HVACOPERATIONSCHD_dy_1,HVACOPERATIONSCHD_dy_1,HVACOPERATIONSCHD_dy_1,HVACOPERATIONSCHD_dy_1,HVACOPERATIONSCHD_dy_1,HVACOPERATIONSCHD_dy_2,HVACOPERATIONSCHD_dy_3,HVACOPERATIONSCHD_dy_1,HVACOPERATIONSCHD_dy_2,HVACOPERATIONSCHD_dy_3,HVACOPERATIONSCHD_dy_3
Schedule:Week:Daily,MINOA_MOTORIZEDDAMPER_SCHED_wk_1,MINOA_MOTORIZEDDAMPER_SCHED_dy_3,MINOA_MOTORIZEDDAMPER_SCHED_dy_1,MINOA_MOTORIZEDDAMPER_SCHED_dy_1,MINOA_MOTORIZEDDAMPER_SCHED_dy_1,MINOA_MOTORIZEDDAMPER_SCHED_dy_1,MINOA_MOTORIZEDDAMPER_SCHED_dy_1,MINOA_MOTORIZEDDAMPER_SCHED_dy_2,MINOA_MOTORIZEDDAMPER_SCHED_dy_3,MINOA_MOTORIZEDDAMPER_SCHED_dy_1,MINOA_MOTORIZEDDAMPER_SCHED_dy_2,MINOA_MOTORIZEDDAMPER_SCHED_dy_3,MINOA_MOTORIZEDDAMPER_SCHED_dy_3
Schedule:Week:Daily,BLDG_SWH_SCH_wk_1,BLDG_SWH_SCH_dy_3,BLDG_SWH_SCH_dy_1,BLDG_SWH_SCH_dy_1,BLDG_SWH_SCH_dy_1,BLDG_SWH_SCH_dy_1,BLDG_SWH_SCH_dy_1,BLDG_SWH_SCH_dy_2,BLDG_SWH_SCH_dy_3,BLDG_SWH_SCH_dy_1,BLDG_SWH_SCH_dy_2,BLDG_SWH_SCH_dy_3,BLDG_SWH_SCH_dy_3
Schedule:Week:Daily,WATER EQUIPMENT LATENT FRACT SCHED_wk_1,WATER EQUIPMENT LATENT FRACT SCHED_dy_1,WATER EQUIPMENT LATENT FRACT SCHED_dy_1,WATER EQUIPMENT LATENT FRACT SCHED_dy_1,WATER EQUIPMENT LATENT FRACT SCHED_dy_1,WATER EQUIPMENT LATENT FRACT SCHED_dy_1,WATER EQUIPMENT LATENT FRACT SCHED_dy_1,WATER EQUIPMENT LATENT FRACT SCHED_dy_1,WATER EQUIPMENT LATENT FRACT SCHED_dy_1,WATER EQUIPMENT LATENT FRACT SCHED_dy_1,WATER EQUIPMENT LATENT FRACT SCHED_dy_1,WATER EQUIPMENT LATENT FRACT SCHED_dy_1,WATER EQUIPMENT LATENT FRACT SCHED_dy_1
Schedule:Week:Daily,WATER EQUIPMENT SENSIBLE FRACT SCHED_wk_1,WATER EQUIPMENT SENSIBLE FRACT SCHED_dy_1,WATER EQUIPMENT SENSIBLE FRACT SCHED_dy_1,WATER EQUIPMENT SENSIBLE FRACT SCHED_dy_1,WATER EQUIPMENT SENSIBLE FRACT SCHED_dy_1,WATER EQUIPMENT SENSIBLE FRACT SCHED_dy_1,WATER EQUIPMENT SENSIBLE FRACT SCHED_dy_1,WATER EQUIPMENT SENSIBLE FRACT SCHED_dy_1,WATER EQUIPMENT SENSIBLE FRACT SCHED_dy_1,WATER EQUIPMENT SENSIBLE FRACT SCHED_dy_1,WATER EQUIPMENT SENSIBLE FRACT SCHED_dy_1,WATER EQUIPMENT SENSIBLE FRACT SCHED_dy_1,WATER EQUIPMENT SENSIBLE FRACT SCHED_dy_1
Schedule:Week:Daily,WATER EQUIPMENT HOT SUPPLY TEMP SCHED_wk_1,WATER EQUIPMENT HOT SUPPLY TEMP SCHED_dy_1,WATER EQUIPMENT HOT SUPPLY TEMP SCHED_dy_1,WATER EQUIPMENT HOT SUPPLY TEMP SCHED_dy_1,WATER EQUIPMENT HOT SUPPLY TEMP SCHED_dy_1,WATER EQUIPMENT HOT SUPPLY TEMP SCHED_dy_1,WATER EQUIPMENT HOT SUPPLY TEMP SCHED_dy_1,WATER EQUIPMENT HOT SUPPLY TEMP SCHED_dy_1,WATER EQUIPMENT HOT SUPPLY TEMP SCHED_dy_1,WATER EQUIPMENT HOT SUPPLY TEMP SCHED_dy_1,WATER EQUIPMENT HOT SUPPLY TEMP SCHED_dy_1,WATER EQUIPMENT HOT SUPPLY TEMP SCHED_dy_1,WATER EQUIPMENT HOT SUPPLY TEMP SCHED_dy_1
Schedule:Week:Daily,WATER EQUIPMENT TEMP SCHED_wk_1,WATER EQUIPMENT TEMP SCHED_dy_1,WATER EQUIPMENT TEMP SCHED_dy_1,WATER EQUIPMENT TEMP SCHED_dy_1,WATER EQUIPMENT TEMP SCHED_dy_1,WATER EQUIPMENT TEMP SCHED_dy_1,WATER EQUIPMENT TEMP SCHED_dy_1,WATER EQUIPMENT TEMP SCHED_dy_1,WATER EQUIPMENT TEMP SCHED_dy_1,WATER EQUIPMENT TEMP SCHED_dy_1,WATER EQUIPMENT TEMP SCHED_dy_1,WATER EQUIPMENT TEMP SCHED_dy_1,WATER EQUIPMENT TEMP SCHED_dy_1
Schedule:Week:Daily,SWHSYS1 WATER HEATER AMBIENT TEMPERATURE SCHEDULE NAME_wk_1,SWHSYS1 WATER HEATER AMBIENT TEMPERATURE SCHEDULE NAME_dy_1,SWHSYS1 WATER HEATER AMBIENT TEMPERATURE SCHEDULE NAME_dy_1,SWHSYS1 WATER HEATER AMBIENT TEMPERATURE SCHEDULE NAME_dy_1,SWHSYS1 WATER HEATER AMBIENT TEMPERATURE SCHEDULE NAME_dy_1,SWHSYS1 WATER HEATER AMBIENT TEMPERATURE SCHEDULE NAME_dy_1,SWHSYS1 WATER HEATER AMBIENT TEMPERATURE SCHEDULE NAME_dy_1,SWHSYS1 WATER HEATER AMBIENT TEMPERATURE SCHEDULE NAME_dy_1,SWHSYS1 WATER HEATER AMBIENT TEMPERATURE SCHEDULE NAME_dy_1,SWHSYS1 WATER HEATER AMBIENT TEMPERATURE SCHEDULE NAME_dy_1,SWHSYS1 WATER HEATER AMBIENT TEMPERATURE SCHEDULE NAME_dy_1,SWHSYS1 WATER HEATER AMBIENT TEMPERATURE SCHEDULE NAME_dy_1,SWHSYS1 WATER HEATER AMBIENT TEMPERATURE SCHEDULE NAME_dy_1
Schedule:Week:Daily,SWHSYS1 WATER HEATER SETPOINT TEMPERATURE SCHEDULE NAME_wk_1,SWHSYS1 WATER HEATER SETPOINT TEMPERATURE SCHEDULE NAME_dy_1,SWHSYS1 WATER HEATER SETPOINT TEMPERATURE SCHEDULE NAME_dy_1,SWHSYS1 WATER HEATER SETPOINT TEMPERATURE SCHEDULE NAME_dy_1,SWHSYS1 WATER HEATER SETPOINT TEMPERATURE SCHEDULE NAME_dy_1,SWHSYS1 WATER HEATER SETPOINT TEMPERATURE SCHEDULE NAME_dy_1,SWHSYS1 WATER HEATER SETPOINT TEMPERATURE SCHEDULE NAME_dy_1,SWHSYS1 WATER HEATER SETPOINT TEMPERATURE SCHEDULE NAME_dy_1,SWHSYS1 WATER HEATER SETPOINT TEMPERATURE SCHEDULE NAME_dy_1,SWHSYS1 WATER HEATER SETPOINT TEMPERATURE SCHEDULE NAME_dy_1,SWHSYS1 WATER HEATER SETPOINT TEMPERATURE SCHEDULE NAME_dy_1,SWHSYS1 WATER HEATER SETPOINT TEMPERATURE SCHEDULE NAME_dy_1,SWHSYS1 WATER HEATER SETPOINT TEMPERATURE SCHEDULE NAME_dy_1
Schedule:Week:Daily,SWHSYS1-LOOP-TEMP-SCHEDULE_wk_1,SWHSYS1-LOOP-TEMP-SCHEDULE_dy_1,SWHSYS1-LOOP-TEMP-SCHEDULE_dy_1,SWHSYS1-LOOP-TEMP-SCHEDULE_dy_1,SWHSYS1-LOOP-TEMP-SCHEDULE_dy_1,SWHSYS1-LOOP-TEMP-SCHEDULE_dy_1,SWHSYS1-LOOP-TEMP-SCHEDULE_dy_1,SWHSYS1-LOOP-TEMP-SCHEDULE_dy_1,SWHSYS1-LOOP-TEMP-SCHEDULE_dy_1,SWHSYS1-LOOP-TEMP-SCHEDULE_dy_1,SWHSYS1-LOOP-TEMP-SCHEDULE_dy_1,SWHSYS1-LOOP-TEMP-SCHEDULE_dy_1,SWHSYS1-LOOP-TEMP-SCHEDULE_dy_1
Schedule,ALWAYS_ON,ON/OFF,Through Dec 31,ALWAYS_ON_wk_1
Schedule,ACTIVITY_SCH,ANY NUMBER,Through Dec 31,ACTIVITY_SCH_wk_1
Schedule,AIR_VELO_SCH,ANY NUMBER,Through Dec 31,AIR_VELO_SCH_wk_1
Schedule,BLDG_ELEVATORS,FRACTION,Through Dec 31,BLDG_ELEVATORS_wk_1
Schedule,BLDG_OCC_SCH,FRACTION,Through Dec 31,BLDG_OCC_SCH_wk_1
Schedule,BLDG_LIGHT_SCH,FRACTION,Through Dec 31,BLDG_LIGHT_SCH_wk_1
Schedule,BLDG_EQUIP_SCH,FRACTION,Through Dec 31,BLDG_EQUIP_SCH_wk_1
Schedule,CLOTHING_SCH,ANY NUMBER,Through Apr 30,CLOTHING_SCH_wk_1,Through Sep 30,CLOTHING_SCH_wk_2,Through Dec 31,CLOTHING_SCH_wk_3
Schedule,INFIL_QUARTER_ON_SCH,FRACTION,Through Dec 31,INFIL_QUARTER_ON_SCH_wk_1
Schedule,WORK_EFF_SCH,FRACTION,Through Dec 31,WORK_EFF_SCH_wk_1
Schedule,DUAL ZONE CONTROL TYPE SCHED,CONTROL TYPE,Through Dec 31,DUAL ZONE CONTROL TYPE SCHED_wk_1
Schedule,CLGSETP_SCH,TEMPERATURE,Through Dec 31,CLGSETP_SCH_wk_1
Schedule,HTGSETP_SCH,TEMPERATURE,Through Dec 31,HTGSETP_SCH_wk_1
Schedule,HVACOPERATIONSCHD,ON/OFF,Through Dec 31,HVACOPERATIONSCHD_wk_1
Schedule,MINOA_MOTORIZEDDAMPER_SCHED,FRACTION,Through Dec 31,MINOA_MOTORIZEDDAMPER_SCHED_wk_1
Schedule,BLDG_SWH_SCH,FRACTION,Through Dec 31,BLDG_SWH_SCH_wk_1
Schedule,WATER EQUIPMENT LATENT FRACT SCHED,FRACTION,Through Dec 31,WATER EQUIPMENT LATENT FRACT SCHED_wk_1
Schedule,WATER EQUIPMENT SENSIBLE FRACT SCHED,FRACTION,Through Dec 31,WATER EQUIPMENT SENSIBLE FRACT SCHED_wk_1
Schedule,WATER EQUIPMENT HOT SUPPLY TEMP SCHED,TEMPERATURE,Through Dec 31,WATER EQUIPMENT HOT SUPPLY TEMP SCHED_wk_1
Schedule,WATER EQUIPMENT TEMP SCHED,TEMPERATURE,Through Dec 31,WATER EQUIPMENT TEMP SCHED_wk_1
Schedule,SWHSYS1 WATER HEATER AMBIENT TEMPERATURE SCHEDULE NAME,TEMPERATURE,Through Dec 31,SWHSYS1 WATER HEATER AMBIENT TEMPERATURE SCHEDULE NAME_wk_1
Schedule,SWHSYS1 WATER HEATER SETPOINT TEMPERATURE SCHEDULE NAME,TEMPERATURE,Through Dec 31,SWHSYS1 WATER HEATER SETPOINT TEMPERATURE SCHEDULE NAME_wk_1
Schedule,SWHSYS1-LOOP-TEMP-SCHEDULE,TEMPERATURE,Through Dec 31,SWHSYS1-LOOP-TEMP-SCHEDULE_wk_1
! <Building Information>, Building Name,North Axis {deg},Terrain,  Loads Convergence Tolerance Value,Temperature Convergence Tolerance Value,  Solar Distribution,Maximum Number of Warmup Days,Minimum Number of Warmup Days
 Building Information,Ref Bldg Medium Office Pre1980_v1.3_5.0,0.000,City,4.00000E-002,0.20000,FullInteriorAndExterior,25,6
! <Inside Convection Algorithm>, Algorithm {Simple | TARP | CeilingDiffuser | AdaptiveConvectionAlgorithm}
Inside Convection Algorithm,TARP
! <Outside Convection Algorithm>, Algorithm {SimpleCombined | TARP | MoWitt | DOE-2 | AdaptiveConvectionAlgorithm}
Outside Convection Algorithm,DOE-2
! <Sky Radiance Distribution>, Value {Anisotropic}
Sky Radiance Distribution,Anisotropic
! <Zone Air Solution Algorithm>, Value {ThirdOrderBackwardDifference | AnalyticalSolution | EulerMethod}
 Zone Air Solution Algorithm, AnalyticalSolution
! <Zone Air Carbon Dioxide Balance Simulation>, Simulation {Yes/No}, Carbon Dioxide Concentration
 Zone Air Carbon Dioxide Balance Simulation, No,N/A
! <Zone Air Generic Contaminant Balance Simulation>, Simulation {Yes/No}, Generic Contaminant Concentration
 Zone Air Generic Contaminant Balance Simulation, No,N/A
! <Zone Air Mass Flow Balance Simulation>, Enforce Mass Balance, Adjust Zone Mixing, Adjust Zone Infiltration {AddInfiltration | AdjustInfiltration | None}, Infiltration Zones {MixingSourceZonesOnly | AllZones}
 Zone Air Mass Flow Balance Simulation, No,N/A,N/A,N/A
! <HVACSystemRootFindingAlgorithm>, Value {RegulaFalsi | Bisection | BisectionThenRegulaFalsi | RegulaFalsiThenBisection}
 HVACSystemRootFindingAlgorithm, RegulaFalsi
! <Environment:Site Atmospheric Variation>,Wind Speed Profile Exponent {},Wind Speed Profile Boundary Layer Thickness {m},Air Temperature Gradient Coefficient {K/m}
Environment:Site Atmospheric Variation,0.330,460.000,6.500000E-003
! <Surface Geometry>,Starting Corner,Vertex Input Direction,Coordinate System,Daylight Reference Point Coordinate System,Rectangular (Simple) Surface Coordinate System
 Surface Geometry,UpperLeftCorner,Counterclockwise,RelativeCoordinateSystem,RelativeCoordinateSystem,RelativeToZoneOrigin
! <Surface Heat Transfer Algorithm>, Value {CTF - ConductionTransferFunction | EMPD - MoisturePenetrationDepthConductionTransferFunction | CondFD - ConductionFiniteDifference | HAMT - CombinedHeatAndMoistureFiniteElement} - Description,Inside Surface Max Temperature Limit{C}, Surface Convection Coefficient Lower Limit {W/m2-K}, Surface Convection Coefficient Upper Limit {W/m2-K}
Surface Heat Transfer Algorithm, CTF - ConductionTransferFunction,200,0.10,1000.0
! <Shading Summary>, Number of Fixed Detached Shades, Number of Building Detached Shades, Number of Attached Shades
 Shading Summary,0,0,0
! <Zone Summary>, Number of Zones, Number of Zone Surfaces, Number of SubSurfaces
 Zone Summary,18,155,12
! <Zone Information>,Zone Name,North Axis {deg},Origin X-Coordinate {m},Origin Y-Coordinate {m},Origin Z-Coordinate {m},Centroid X-Coordinate {m},Centroid Y-Coordinate {m},Centroid Z-Coordinate {m},Type,Zone Multiplier,Zone List Multiplier,Minimum X {m},Maximum X {m},Minimum Y {m},Maximum Y {m},Minimum Z {m},Maximum Z {m},Ceiling Height {m},Volume {m3},Zone Inside Convection Algorithm {Simple-Detailed-CeilingDiffuser-TrombeWall},Zone Outside Convection Algorithm {Simple-Detailed-Tarp-MoWitt-DOE-2-BLAST}, Floor Area {m2},Exterior Gross Wall Area {m2},Exterior Net Wall Area {m2},Exterior Window Area {m2}, Number of Surfaces, Number of SubSurfaces, Number of Shading SubSurfaces,  Part of Total Building Area
 Zone Information, CORE_BOTTOM,0.0,0.00,0.00,0.00,24.96,16.64,1.37,1,1,1,4.57,45.34,4.57,28.70,0.00,2.74,2.74,2698.04,TARP,DOE-2,983.54,0.00,0.00,0.00,6,0,0,Yes
 Zone Information, CORE_MID,0.0,0.00,0.00,0.00,24.96,16.64,5.33,1,1,1,4.57,45.34,4.57,28.70,3.96,6.71,2.74,2698.04,TARP,DOE-2,983.54,0.00,0.00,0.00,6,0,0,Yes
 Zone Information, CORE_TOP,0.0,0.00,0.00,0.00,24.96,16.64,9.30,1,1,1,4.57,45.34,4.57,28.70,7.92,10.67,2.74,2698.04,TARP,DOE-2,983.54,0.00,0.00,0.00,6,0,0,Yes
 Zone Information, FIRSTFLOOR_PLENUM,0.0,0.00,0.00,0.00,24.96,16.64,3.35,1,1,1,0.00,49.91,0.00,33.27,2.74,3.96,1.22,2024.76,TARP,DOE-2,1660.73,202.84,202.84,0.00,14,0,0,No
 Zone Information, MIDFLOOR_PLENUM,0.0,0.00,0.00,0.00,24.96,16.64,7.32,1,1,1,0.00,49.91,0.00,33.27,6.71,7.92,1.22,2024.76,TARP,DOE-2,1660.73,202.84,202.84,0.00,14,0,0,No
 Zone Information, PERIMETER_BOT_ZN_1,0.0,0.00,0.00,0.00,24.96,2.16,1.37,1,1,1,0.00,49.91,0.00,4.57,0.00,2.74,2.74,568.77,TARP,DOE-2,207.34,136.92,71.63,65.28,6,1,0,Yes
 Zone Information, PERIMETER_BOT_ZN_2,0.0,0.00,0.00,0.00,47.82,16.64,1.37,1,1,1,45.34,49.91,0.00,33.27,0.00,2.74,2.74,360.08,TARP,DOE-2,131.26,91.28,47.75,43.52,6,1,0,Yes
 Zone Information, PERIMETER_BOT_ZN_3,0.0,0.00,0.00,0.00,24.96,31.11,1.37,1,1,1,0.00,49.91,28.70,33.27,0.00,2.74,2.74,568.77,TARP,DOE-2,207.34,136.92,71.63,65.28,6,1,0,Yes
 Zone Information, PERIMETER_BOT_ZN_4,0.0,0.00,0.00,0.00,2.09,16.64,1.37,1,1,1,0.00,4.57,0.00,33.27,0.00,2.74,2.74,360.05,TARP,DOE-2,131.25,91.28,47.75,43.52,6,1,0,Yes
 Zone Information, PERIMETER_MID_ZN_1,0.0,0.00,0.00,0.00,24.96,2.16,5.33,1,1,1,0.00,49.91,0.00,4.57,3.96,6.71,2.74,568.77,TARP,DOE-2,207.34,136.92,71.63,65.28,6,1,0,Yes
 Zone Information, PERIMETER_MID_ZN_2,0.0,0.00,0.00,0.00,47.82,16.64,5.33,1,1,1,45.34,49.91,0.00,33.27,3.96,6.71,2.74,360.08,TARP,DOE-2,131.26,91.28,47.75,43.52,6,1,0,Yes
 Zone Information, PERIMETER_MID_ZN_3,0.0,0.00,0.00,0.00,24.96,31.11,5.33,1,1,1,0.00,49.91,28.70,33.27,3.96,6.71,2.74,568.77,TARP,DOE-2,207.34,136.92,71.63,65.28,6,1,0,Yes
 Zone Information, PERIMETER_MID_ZN_4,0.0,0.00,0.00,0.00,2.09,16.64,5.33,1,1,1,0.00,4.57,0.00,33.27,3.96,6.71,2.74,360.05,TARP,DOE-2,131.25,91.28,47.75,43.52,6,1,0,Yes
 Zone Information, PERIMETER_TOP_ZN_1,0.0,0.00,0.00,0.00,24.96,2.16,9.30,1,1,1,0.00,49.91,0.00,4.57,7.92,10.67,2.74,568.77,TARP,DOE-2,207.34,136.92,71.63,65.28,6,1,0,Yes
 Zone Information, PERIMETER_TOP_ZN_2,0.0,0.00,0.00,0.00,47.82,16.64,9.30,1,1,1,45.34,49.91,0.00,33.27,7.92,10.67,2.74,360.08,TARP,DOE-2,131.26,91.28,47.75,43.52,6,1,0,Yes
 Zone Information, PERIMETER_TOP_ZN_3,0.0,0.00,0.00,0.00,24.96,31.11,9.30,1,1,1,0.00,49.91,28.70,33.27,7.92,10.67,2.74,568.77,TARP,DOE-2,207.34,136.92,71.63,65.28,6,1,0,Yes
 Zone Information, PERIMETER_TOP_ZN_4,0.0,0.00,0.00,0.00,2.09,16.64,9.30,1,1,1,0.00,4.57,0.00,33.27,7.92,10.67,2.74,360.05,TARP,DOE-2,131.25,91.28,47.75,43.52,6,1,0,Yes
 Zone Information, TOPFLOOR_PLENUM,0.0,0.00,0.00,0.00,24.96,16.64,11.28,1,1,1,0.00,49.91,0.00,33.27,10.67,11.89,1.22,2024.76,TARP,DOE-2,1660.73,202.84,202.84,0.00,10,0,0,No
! <Zone Internal Gains Nominal>,Zone Name, Floor Area {m2},# Occupants,Area per Occupant {m2/person},Occupant per Area {person/m2},Interior Lighting {W/m2},Electric Load {W/m2},Gas Load {W/m2},Other Load {W/m2},Hot Water Eq {W/m2},Steam Equipment {W/m2},Sum Loads per Area {W/m2},Outdoor Controlled Baseboard Heat
 Zone Internal Gains Nominal, CORE_BOTTOM,983.54,52.9,18.580,5.382E-002,16.890,43.407,0.000,0.000,0.000,0.000,60.297,No
 Zone Internal Gains Nominal, CORE_MID,983.54,52.9,18.580,5.382E-002,16.890,10.760,0.000,0.000,0.000,0.000,27.650,No
 Zone Internal Gains Nominal, CORE_TOP,983.54,52.9,18.580,5.382E-002,16.890,10.760,0.000,0.000,0.000,0.000,27.650,No
 Zone Internal Gains Nominal, FIRSTFLOOR_PLENUM,1660.73,0.0,N/A,0.000,0.000,0.000,0.000,0.000,0.000,0.000,0.000,No
 Zone Internal Gains Nominal, MIDFLOOR_PLENUM,1660.73,0.0,N/A,0.000,0.000,0.000,0.000,0.000,0.000,0.000,0.000,No
 Zone Internal Gains Nominal, PERIMETER_BOT_ZN_1,207.34,11.2,18.580,5.382E-002,16.890,10.760,0.000,0.000,0.000,0.000,27.650,No
 Zone Internal Gains Nominal, PERIMETER_BOT_ZN_2,131.26,7.1,18.580,5.382E-002,16.890,10.760,0.000,0.000,0.000,0.000,27.650,No
 Zone Internal Gains Nominal, PERIMETER_BOT_ZN_3,207.34,11.2,18.580,5.382E-002,16.890,10.760,0.000,0.000,0.000,0.000,27.650,No
 Zone Internal Gains Nominal, PERIMETER_BOT_ZN_4,131.25,7.1,18.580,5.382E-002,16.890,10.760,0.000,0.000,0.000,0.000,27.650,No
 Zone Internal Gains Nominal, PERIMETER_MID_ZN_1,207.34,11.2,18.580,5.382E-002,16.890,10.760,0.000,0.000,0.000,0.000,27.650,No
 Zone Internal Gains Nominal, PERIMETER_MID_ZN_2,131.26,7.1,18.580,5.382E-002,16.890,10.760,0.000,0.000,0.000,0.000,27.650,No
 Zone Internal Gains Nominal, PERIMETER_MID_ZN_3,207.34,11.2,18.580,5.382E-002,16.890,10.760,0.000,0.000,0.000,0.000,27.650,No
 Zone Internal Gains Nominal, PERIMETER_MID_ZN_4,131.25,7.1,18.580,5.382E-002,16.890,10.760,0.000,0.000,0.000,0.000,27.650,No
 Zone Internal Gains Nominal, PERIMETER_TOP_ZN_1,207.34,11.2,18.580,5.382E-002,16.890,10.760,0.000,0.000,0.000,0.000,27.650,No
 Zone Internal Gains Nominal, PERIMETER_TOP_ZN_2,131.26,7.1,18.580,5.382E-002,16.890,10.760,0.000,0.000,0.000,0.000,27.650,No
 Zone Internal Gains Nominal, PERIMETER_TOP_ZN_3,207.34,11.2,18.580,5.382E-002,16.890,10.760,0.000,0.000,0.000,0.000,27.650,No
 Zone Internal Gains Nominal, PERIMETER_TOP_ZN_4,131.25,7.1,18.580,5.382E-002,16.890,10.760,0.000,0.000,0.000,0.000,27.650,No
 Zone Internal Gains Nominal, TOPFLOOR_PLENUM,1660.73,0.0,N/A,0.000,0.000,0.000,0.000,0.000,0.000,0.000,0.000,No
! <People Internal Gains Nominal>,Name,Schedule Name,Zone Name,Zone Floor Area {m2},# Zone Occupants,Number of People {},People/Floor Area {person/m2},Floor Area per person {m2/person},Fraction Radiant,Fraction Convected,Sensible Fraction Calculation,Activity level,ASHRAE 55 Warnings,Carbon Dioxide Generation Rate,Nominal Minimum Number of People,Nominal Maximum Number of People,MRT Calculation Type,Work Efficiency, Clothing Insulation Calculation Method,Clothing Insulation Calculation Method Schedule,Clothing,Air Velocity,Fanger Calculation,Pierce Calculation,KSU Calculation
 People Internal Gains Nominal, CORE_BOTTOM PEOPLE,BLDG_OCC_SCH,CORE_BOTTOM,983.54,52.9,52.9,5.382E-002,18.580,0.300,0.700,AutoCalculate,ACTIVITY_SCH,No,3.8200E-008,0,53,Zone Averaged,WORK_EFF_SCH,Clothing Insulation Schedule,N/A,CLOTHING_SCH,AIR_VELO_SCH,Yes,No,No
 People Internal Gains Nominal, CORE_MID PEOPLE,BLDG_OCC_SCH,CORE_MID,983.54,52.9,52.9,5.382E-002,18.580,0.300,0.700,AutoCalculate,ACTIVITY_SCH,No,3.8200E-008,0,53,Zone Averaged,WORK_EFF_SCH,Clothing Insulation Schedule,N/A,CLOTHING_SCH,AIR_VELO_SCH,Yes,No,No
 People Internal Gains Nominal, CORE_TOP PEOPLE,BLDG_OCC_SCH,CORE_TOP,983.54,52.9,52.9,5.382E-002,18.580,0.300,0.700,AutoCalculate,ACTIVITY_SCH,No,3.8200E-008,0,53,Zone Averaged,WORK_EFF_SCH,Clothing Insulation Schedule,N/A,CLOTHING_SCH,AIR_VELO_SCH,Yes,No,No
 People Internal Gains Nominal, PERIMETER_BOT_ZN_1 PEOPLE,BLDG_OCC_SCH,PERIMETER_BOT_ZN_1,207.34,11.2,11.2,5.382E-002,18.580,0.300,0.700,AutoCalculate,ACTIVITY_SCH,No,3.8200E-008,0,11,Zone Averaged,WORK_EFF_SCH,Clothing Insulation Schedule,N/A,CLOTHING_SCH,AIR_VELO_SCH,Yes,No,No
 People Internal Gains Nominal, PERIMETER_BOT_ZN_2 PEOPLE,BLDG_OCC_SCH,PERIMETER_BOT_ZN_2,131.26,7.1,7.1,5.382E-002,18.580,0.300,0.700,AutoCalculate,ACTIVITY_SCH,No,3.8200E-008,0,7,Zone Averaged,WORK_EFF_SCH,Clothing Insulation Schedule,N/A,CLOTHING_SCH,AIR_VELO_SCH,Yes,No,No
 People Internal Gains Nominal, PERIMETER_BOT_ZN_3 PEOPLE,BLDG_OCC_SCH,PERIMETER_BOT_ZN_3,207.34,11.2,11.2,5.382E-002,18.580,0.300,0.700,AutoCalculate,ACTIVITY_SCH,No,3.8200E-008,0,11,Zone Averaged,WORK_EFF_SCH,Clothing Insulation Schedule,N/A,CLOTHING_SCH,AIR_VELO_SCH,Yes,No,No
 People Internal Gains Nominal, PERIMETER_BOT_ZN_4 PEOPLE,BLDG_OCC_SCH,PERIMETER_BOT_ZN_4,131.25,7.1,7.1,5.382E-002,18.580,0.300,0.700,AutoCalculate,ACTIVITY_SCH,No,3.8200E-008,0,7,Zone Averaged,WORK_EFF_SCH,Clothing Insulation Schedule,N/A,CLOTHING_SCH,AIR_VELO_SCH,Yes,No,No
 People Internal Gains Nominal, PERIMETER_MID_ZN_1 PEOPLE,BLDG_OCC_SCH,PERIMETER_MID_ZN_1,207.34,11.2,11.2,5.382E-002,18.580,0.300,0.700,AutoCalculate,ACTIVITY_SCH,No,3.8200E-008,0,11,Zone Averaged,WORK_EFF_SCH,Clothing Insulation Schedule,N/A,CLOTHING_SCH,AIR_VELO_SCH,Yes,No,No
 People Internal Gains Nominal, PERIMETER_MID_ZN_2 PEOPLE,BLDG_OCC_SCH,PERIMETER_MID_ZN_2,131.26,7.1,7.1,5.382E-002,18.580,0.300,0.700,AutoCalculate,ACTIVITY_SCH,No,3.8200E-008,0,7,Zone Averaged,WORK_EFF_SCH,Clothing Insulation Schedule,N/A,CLOTHING_SCH,AIR_VELO_SCH,Yes,No,No
 People Internal Gains Nominal, PERIMETER_MID_ZN_3 PEOPLE,BLDG_OCC_SCH,PERIMETER_MID_ZN_3,207.34,11.2,11.2,5.382E-002,18.580,0.300,0.700,AutoCalculate,ACTIVITY_SCH,No,3.8200E-008,0,11,Zone Averaged,WORK_EFF_SCH,Clothing Insulation Schedule,N/A,CLOTHING_SCH,AIR_VELO_SCH,Yes,No,No
 People Internal Gains Nominal, PERIMETER_MID_ZN_4 PEOPLE,BLDG_OCC_SCH,PERIMETER_MID_ZN_4,131.25,7.1,7.1,5.382E-002,18.580,0.300,0.700,AutoCalculate,ACTIVITY_SCH,No,3.8200E-008,0,7,Zone Averaged,WORK_EFF_SCH,Clothing Insulation Schedule,N/A,CLOTHING_SCH,AIR_VELO_SCH,Yes,No,No
 People Internal Gains Nominal, PERIMETER_TOP_ZN_1 PEOPLE,BLDG_OCC_SCH,PERIMETER_TOP_ZN_1,207.34,11.2,11.2,5.382E-002,18.580,0.300,0.700,AutoCalculate,ACTIVITY_SCH,No,3.8200E-008,0,11,Zone Averaged,WORK_EFF_SCH,Clothing Insulation Schedule,N/A,CLOTHING_SCH,AIR_VELO_SCH,Yes,No,No
 People Internal Gains Nominal, PERIMETER_TOP_ZN_2 PEOPLE,BLDG_OCC_SCH,PERIMETER_TOP_ZN_2,131.26,7.1,7.1,5.382E-002,18.580,0.300,0.700,AutoCalculate,ACTIVITY_SCH,No,3.8200E-008,0,7,Zone Averaged,WORK_EFF_SCH,Clothing Insulation Schedule,N/A,CLOTHING_SCH,AIR_VELO_SCH,Yes,No,No
 People Internal Gains Nominal, PERIMETER_TOP_ZN_3 PEOPLE,BLDG_OCC_SCH,PERIMETER_TOP_ZN_3,207.34,11.2,11.2,5.382E-002,18.580,0.300,0.700,AutoCalculate,ACTIVITY_SCH,No,3.8200E-008,0,11,Zone Averaged,WORK_EFF_SCH,Clothing Insulation Schedule,N/A,CLOTHING_SCH,AIR_VELO_SCH,Yes,No,No
 People Internal Gains Nominal, PERIMETER_TOP_ZN_4 PEOPLE,BLDG_OCC_SCH,PERIMETER_TOP_ZN_4,131.25,7.1,7.1,5.382E-002,18.580,0.300,0.700,AutoCalculate,ACTIVITY_SCH,No,3.8200E-008,0,7,Zone Averaged,WORK_EFF_SCH,Clothing Insulation Schedule,N/A,CLOTHING_SCH,AIR_VELO_SCH,Yes,No,No
! <Lights Internal Gains Nominal>,Name,Schedule Name,Zone Name,Zone Floor Area {m2},# Zone Occupants,Lighting Level {W},Lights/Floor Area {W/m2},Lights per person {W/person},Fraction Return Air,Fraction Radiant,Fraction Short Wave,Fraction Convected,Fraction Replaceable,End-Use Category,Nominal Minimum Lighting Level {W},Nominal Maximum Lighting Level {W}
 Lights Internal Gains Nominal, CORE_BOTTOM_LIGHTS,BLDG_LIGHT_SCH,CORE_BOTTOM,983.54,52.9,16611.933,16.890,313.816,0.400,0.400,0.200,0.000,1.000,General,0.000,16611.933
 Lights Internal Gains Nominal, CORE_MID_LIGHTS,BLDG_LIGHT_SCH,CORE_MID,983.54,52.9,16611.933,16.890,313.816,0.400,0.400,0.200,0.000,1.000,General,0.000,16611.933
 Lights Internal Gains Nominal, CORE_TOP_LIGHTS,BLDG_LIGHT_SCH,CORE_TOP,983.54,52.9,16611.933,16.890,313.816,0.400,0.400,0.200,0.000,1.000,General,0.000,16611.933
 Lights Internal Gains Nominal, PERIMETER_BOT_ZN_1_LIGHTS,BLDG_LIGHT_SCH,PERIMETER_BOT_ZN_1,207.34,11.2,3501.941,16.890,313.816,0.400,0.400,0.200,0.000,1.000,General,0.000,3501.941
 Lights Internal Gains Nominal, PERIMETER_BOT_ZN_2_LIGHTS,BLDG_LIGHT_SCH,PERIMETER_BOT_ZN_2,131.26,7.1,2217.018,16.890,313.816,0.400,0.400,0.200,0.000,1.000,General,0.000,2217.018
 Lights Internal Gains Nominal, PERIMETER_BOT_ZN_3_LIGHTS,BLDG_LIGHT_SCH,PERIMETER_BOT_ZN_3,207.34,11.2,3501.941,16.890,313.816,0.400,0.400,0.200,0.000,1.000,General,0.000,3501.941
 Lights Internal Gains Nominal, PERIMETER_BOT_ZN_4_LIGHTS,BLDG_LIGHT_SCH,PERIMETER_BOT_ZN_4,131.25,7.1,2216.873,16.890,313.816,0.400,0.400,0.200,0.000,1.000,General,0.000,2216.873
 Lights Internal Gains Nominal, PERIMETER_MID_ZN_1_LIGHTS,BLDG_LIGHT_SCH,PERIMETER_MID_ZN_1,207.34,11.2,3501.941,16.890,313.816,0.400,0.400,0.200,0.000,1.000,General,0.000,3501.941
 Lights Internal Gains Nominal, PERIMETER_MID_ZN_2_LIGHTS,BLDG_LIGHT_SCH,PERIMETER_MID_ZN_2,131.26,7.1,2217.018,16.890,313.816,0.400,0.400,0.200,0.000,1.000,General,0.000,2217.018
 Lights Internal Gains Nominal, PERIMETER_MID_ZN_3_LIGHTS,BLDG_LIGHT_SCH,PERIMETER_MID_ZN_3,207.34,11.2,3501.941,16.890,313.816,0.400,0.400,0.200,0.000,1.000,General,0.000,3501.941
 Lights Internal Gains Nominal, PERIMETER_MID_ZN_4_LIGHTS,BLDG_LIGHT_SCH,PERIMETER_MID_ZN_4,131.25,7.1,2216.873,16.890,313.816,0.400,0.400,0.200,0.000,1.000,General,0.000,2216.873
 Lights Internal Gains Nominal, PERIMETER_TOP_ZN_1_LIGHTS,BLDG_LIGHT_SCH,PERIMETER_TOP_ZN_1,207.34,11.2,3501.941,16.890,313.816,0.400,0.400,0.200,0.000,1.000,General,0.000,3501.941
 Lights Internal Gains Nominal, PERIMETER_TOP_ZN_2_LIGHTS,BLDG_LIGHT_SCH,PERIMETER_TOP_ZN_2,131.26,7.1,2217.018,16.890,313.816,0.400,0.400,0.200,0.000,1.000,General,0.000,2217.018
 Lights Internal Gains Nominal, PERIMETER_TOP_ZN_3_LIGHTS,BLDG_LIGHT_SCH,PERIMETER_TOP_ZN_3,207.34,11.2,3501.941,16.890,313.816,0.400,0.400,0.200,0.000,1.000,General,0.000,3501.941
 Lights Internal Gains Nominal, PERIMETER_TOP_ZN_4_LIGHTS,BLDG_LIGHT_SCH,PERIMETER_TOP_ZN_4,131.25,7.1,2216.873,16.890,313.816,0.400,0.400,0.200,0.000,1.000,General,0.000,2216.873
! <ElectricEquipment Internal Gains Nominal>,Name,Schedule Name,Zone Name,Zone Floor Area {m2},# Zone Occupants,Equipment Level {W},Equipment/Floor Area {W/m2},Equipment per person {W/person},Fraction Latent,Fraction Radiant,Fraction Lost,Fraction Convected,End-Use SubCategory,Nominal Minimum Equipment Level {W},Nominal Maximum Equipment Level {W}
 ElectricEquipment Internal Gains Nominal, CORE_BOTTOM_PLUGMISC_EQUIP,BLDG_EQUIP_SCH,CORE_BOTTOM,983.54,52.9,10582.854,10.760,199.921,0.000,0.500,0.000,0.500,General,0.000,10582.854
 ElectricEquipment Internal Gains Nominal, CORE_MID_PLUGMISC_EQUIP,BLDG_EQUIP_SCH,CORE_MID,983.54,52.9,10582.854,10.760,199.921,0.000,0.500,0.000,0.500,General,0.000,10582.854
 ElectricEquipment Internal Gains Nominal, CORE_TOP_PLUGMISC_EQUIP,BLDG_EQUIP_SCH,CORE_TOP,983.54,52.9,10582.854,10.760,199.921,0.000,0.500,0.000,0.500,General,0.000,10582.854
 ElectricEquipment Internal Gains Nominal, PERIMETER_BOT_ZN_1_PLUGMISC_EQUIP,BLDG_EQUIP_SCH,PERIMETER_BOT_ZN_1,207.34,11.2,2230.958,10.760,199.921,0.000,0.500,0.000,0.500,General,0.000,2230.958
 ElectricEquipment Internal Gains Nominal, PERIMETER_BOT_ZN_2_PLUGMISC_EQUIP,BLDG_EQUIP_SCH,PERIMETER_BOT_ZN_2,131.26,7.1,1412.381,10.760,199.921,0.000,0.500,0.000,0.500,General,0.000,1412.381
 ElectricEquipment Internal Gains Nominal, PERIMETER_BOT_ZN_3_PLUGMISC_EQUIP,BLDG_EQUIP_SCH,PERIMETER_BOT_ZN_3,207.34,11.2,2230.958,10.760,199.921,0.000,0.500,0.000,0.500,General,0.000,2230.958
 ElectricEquipment Internal Gains Nominal, PERIMETER_BOT_ZN_4_PLUGMISC_EQUIP,BLDG_EQUIP_SCH,PERIMETER_BOT_ZN_4,131.25,7.1,1412.289,10.760,199.921,0.000,0.500,0.000,0.500,General,0.000,1412.289
 ElectricEquipment Internal Gains Nominal, PERIMETER_MID_ZN_1_PLUGMISC_EQUIP,BLDG_EQUIP_SCH,PERIMETER_MID_ZN_1,207.34,11.2,2230.958,10.760,199.921,0.000,0.500,0.000,0.500,General,0.000,2230.958
 ElectricEquipment Internal Gains Nominal, PERIMETER_MID_ZN_2_PLUGMISC_EQUIP,BLDG_EQUIP_SCH,PERIMETER_MID_ZN_2,131.26,7.1,1412.381,10.760,199.921,0.000,0.500,0.000,0.500,General,0.000,1412.381
 ElectricEquipment Internal Gains Nominal, PERIMETER_MID_ZN_3_PLUGMISC_EQUIP,BLDG_EQUIP_SCH,PERIMETER_MID_ZN_3,207.34,11.2,2230.958,10.760,199.921,0.000,0.500,0.000,0.500,General,0.000,2230.958
 ElectricEquipment Internal Gains Nominal, PERIMETER_MID_ZN_4_PLUGMISC_EQUIP,BLDG_EQUIP_SCH,PERIMETER_MID_ZN_4,131.25,7.1,1412.289,10.760,199.921,0.000,0.500,0.000,0.500,General,0.000,1412.289
 ElectricEquipment Internal Gains Nominal, PERIMETER_TOP_ZN_1_PLUGMISC_EQUIP,BLDG_EQUIP_SCH,PERIMETER_TOP_ZN_1,207.34,11.2,2230.958,10.760,199.921,0.000,0.500,0.000,0.500,General,0.000,2230.958
 ElectricEquipment Internal Gains Nominal, PERIMETER_TOP_ZN_2_PLUGMISC_EQUIP,BLDG_EQUIP_SCH,PERIMETER_TOP_ZN_2,131.26,7.1,1412.381,10.760,199.921,0.000,0.500,0.000,0.500,General,0.000,1412.381
 ElectricEquipment Internal Gains Nominal, PERIMETER_TOP_ZN_3_PLUGMISC_EQUIP,BLDG_EQUIP_SCH,PERIMETER_TOP_ZN_3,207.34,11.2,2230.958,10.760,199.921,0.000,0.500,0.000,0.500,General,0.000,2230.958
 ElectricEquipment Internal Gains Nominal, PERIMETER_TOP_ZN_4_PLUGMISC_EQUIP,BLDG_EQUIP_SCH,PERIMETER_TOP_ZN_4,131.25,7.1,1412.289,10.760,199.921,0.000,0.500,0.000,0.500,General,0.000,1412.289
 ElectricEquipment Internal Gains Nominal, CORE_BOTTOM_ELEVATORS_EQUIP,BLDG_ELEVATORS,CORE_BOTTOM,983.54,52.9,32109.890,32.647,606.588,0.000,0.500,0.000,0.500,Elevators,0.000,22155.824
! <Shadowing/Sun Position Calculations Annual Simulations>, Calculation Method, Value {days}, Allowable Number Figures in Shadow Overlap {}, Polygon Clipping Algorithm, Sky Diffuse Modeling Algorithm, External Shading Calculation Method, Output External Shading Calculation Results, Disable Self-Shading Within Shading Zone Groups, Disable Self-Shading From Shading Zone Groups to Other Zones
Shadowing/Sun Position Calculations Annual Simulations,AverageOverDaysInFrequency,7,15000,SutherlandHodgman,SimpleSkyDiffuseModeling,InternalCalculation,No,No,No
! <Water Heater Information>,Type,Name,Volume {m3},Maximum Capacity {W},Standard Rated Recovery Efficiency, Standard Rated Energy Factor
! <ZoneInfiltration Airflow Stats Nominal>,Name,Schedule Name,Zone Name, Zone Floor Area {m2}, # Zone Occupants,Design Volume Flow Rate {m3/s},Volume Flow Rate/Floor Area {m3/s-m2},Volume Flow Rate/Exterior Surface Area {m3/s-m2},ACH - Air Changes per Hour,Equation A - Constant Term Coefficient {},Equation B - Temperature Term Coefficient {1/C},Equation C - Velocity Term Coefficient {s/m}, Equation D - Velocity Squared Term Coefficient {s2/m2}
 ZoneInfiltration Airflow Stats Nominal, FIRSTFLOOR_PLENUM_INFILTRATION,INFIL_QUARTER_ON_SCH,FIRSTFLOOR_PLENUM,1660.73,0.0,0.230,1.384E-004,1.133E-003,0.409,1.000,0.000,0.000,0.000
 ZoneInfiltration Airflow Stats Nominal, MIDFLOOR_PLENUM_INFILTRATION,INFIL_QUARTER_ON_SCH,MIDFLOOR_PLENUM,1660.73,0.0,0.230,1.384E-004,1.133E-003,0.409,1.000,0.000,0.000,0.000
 ZoneInfiltration Airflow Stats Nominal, PERIMETER_BOT_ZN_1_INFILTRATION,INFIL_QUARTER_ON_SCH,PERIMETER_BOT_ZN_1,207.34,11.2,0.155,7.482E-004,1.133E-003,0.982,1.000,0.000,0.000,0.000
 ZoneInfiltration Airflow Stats Nominal, PERIMETER_BOT_ZN_2_INFILTRATION,INFIL_QUARTER_ON_SCH,PERIMETER_BOT_ZN_2,131.26,7.1,0.103,7.879E-004,1.133E-003,1.034,1.000,0.000,0.000,0.000
 ZoneInfiltration Airflow Stats Nominal, PERIMETER_BOT_ZN_3_INFILTRATION,INFIL_QUARTER_ON_SCH,PERIMETER_BOT_ZN_3,207.34,11.2,0.155,7.482E-004,1.133E-003,0.982,1.000,0.000,0.000,0.000
 ZoneInfiltration Airflow Stats Nominal, PERIMETER_BOT_ZN_4_INFILTRATION,INFIL_QUARTER_ON_SCH,PERIMETER_BOT_ZN_4,131.25,7.1,0.103,7.879E-004,1.133E-003,1.034,1.000,0.000,0.000,0.000
 ZoneInfiltration Airflow Stats Nominal, PERIMETER_MID_ZN_1_INFILTRATION,INFIL_QUARTER_ON_SCH,PERIMETER_MID_ZN_1,207.34,11.2,0.155,7.482E-004,1.133E-003,0.982,1.000,0.000,0.000,0.000
 ZoneInfiltration Airflow Stats Nominal, PERIMETER_MID_ZN_2_INFILTRATION,INFIL_QUARTER_ON_SCH,PERIMETER_MID_ZN_2,131.26,7.1,0.103,7.879E-004,1.133E-003,1.034,1.000,0.000,0.000,0.000
 ZoneInfiltration Airflow Stats Nominal, PERIMETER_MID_ZN_3_INFILTRATION,INFIL_QUARTER_ON_SCH,PERIMETER_MID_ZN_3,207.34,11.2,0.155,7.482E-004,1.133E-003,0.982,1.000,0.000,0.000,0.000
 ZoneInfiltration Airflow Stats Nominal, PERIMETER_MID_ZN_4_INFILTRATION,INFIL_QUARTER_ON_SCH,PERIMETER_MID_ZN_4,131.25,7.1,0.103,7.879E-004,1.133E-003,1.034,1.000,0.000,0.000,0.000
 ZoneInfiltration Airflow Stats Nominal, PERIMETER_TOP_ZN_1_INFILTRATION,INFIL_QUARTER_ON_SCH,PERIMETER_TOP_ZN_1,207.34,11.2,0.155,7.482E-004,1.133E-003,0.982,1.000,0.000,0.000,0.000
 ZoneInfiltration Airflow Stats Nominal, PERIMETER_TOP_ZN_2_INFILTRATION,INFIL_QUARTER_ON_SCH,PERIMETER_TOP_ZN_2,131.26,7.1,0.103,7.879E-004,1.133E-003,1.034,1.000,0.000,0.000,0.000
 ZoneInfiltration Airflow Stats Nominal, PERIMETER_TOP_ZN_3_INFILTRATION,INFIL_QUARTER_ON_SCH,PERIMETER_TOP_ZN_3,207.34,11.2,0.155,7.482E-004,1.133E-003,0.982,1.000,0.000,0.000,0.000
 ZoneInfiltration Airflow Stats Nominal, PERIMETER_TOP_ZN_4_INFILTRATION,INFIL_QUARTER_ON_SCH,PERIMETER_TOP_ZN_4,131.25,7.1,0.103,7.879E-004,1.133E-003,1.034,1.000,0.000,0.000,0.000
 ZoneInfiltration Airflow Stats Nominal, TOPFLOOR_PLENUM_INFILTRATION,INFIL_QUARTER_ON_SCH,TOPFLOOR_PLENUM,1660.73,0.0,2.111,1.271E-003,1.133E-003,3.754,1.000,0.000,0.000,0.000
! <AirFlow Model>, Simple
 AirFlow Model, Simple
! <RoomAir Model>, Zone Name, Mixing/Mundt/UCSDDV/UCSDCV/UCSDUFI/UCSDUFE/User Defined
RoomAir Model,CORE_BOTTOM,Mixing/Well-Stirred
RoomAir Model,CORE_MID,Mixing/Well-Stirred
RoomAir Model,CORE_TOP,Mixing/Well-Stirred
RoomAir Model,FIRSTFLOOR_PLENUM,Mixing/Well-Stirred
RoomAir Model,MIDFLOOR_PLENUM,Mixing/Well-Stirred
RoomAir Model,PERIMETER_BOT_ZN_1,Mixing/Well-Stirred
RoomAir Model,PERIMETER_BOT_ZN_2,Mixing/Well-Stirred
RoomAir Model,PERIMETER_BOT_ZN_3,Mixing/Well-Stirred
RoomAir Model,PERIMETER_BOT_ZN_4,Mixing/Well-Stirred
RoomAir Model,PERIMETER_MID_ZN_1,Mixing/Well-Stirred
RoomAir Model,PERIMETER_MID_ZN_2,Mixing/Well-Stirred
RoomAir Model,PERIMETER_MID_ZN_3,Mixing/Well-Stirred
RoomAir Model,PERIMETER_MID_ZN_4,Mixing/Well-Stirred
RoomAir Model,PERIMETER_TOP_ZN_1,Mixing/Well-Stirred
RoomAir Model,PERIMETER_TOP_ZN_2,Mixing/Well-Stirred
RoomAir Model,PERIMETER_TOP_ZN_3,Mixing/Well-Stirred
RoomAir Model,PERIMETER_TOP_ZN_4,Mixing/Well-Stirred
RoomAir Model,TOPFLOOR_PLENUM,Mixing/Well-Stirred
! <AirflowNetwork Model:Control>, No Multizone or Distribution/Multizone with Distribution/Multizone without Distribution/Multizone with Distribution only during Fan Operation
AirflowNetwork Model:Control,NoMultizoneOrDistribution
! <Zone Volume Capacitance Multiplier>, Sensible Heat Capacity Multiplier, Moisture Capacity Multiplier, Carbon Dioxide Capacity Multiplier, Generic Contaminant Capacity Multiplier
Zone Volume Capacitance Multiplier,   1.000 ,   1.000,   1.000,   1.000
! <Load Timesteps in Zone Design Calculation Averaging Window>, Value
 Load Timesteps in Zone Design Calculation Averaging Window,    6
! <Heating Sizing Factor Information>, Sizing Factor ID, Value
 Heating Sizing Factor Information, Global,   1.3300    
 Heating Sizing Factor Information, Zone CORE_BOTTOM,   1.3300    
 Heating Sizing Factor Information, Zone CORE_MID,   1.3300    
 Heating Sizing Factor Information, Zone CORE_TOP,   1.3300    
 Heating Sizing Factor Information, Zone PERIMETER_BOT_ZN_1,   1.3300    
 Heating Sizing Factor Information, Zone PERIMETER_BOT_ZN_2,   1.3300    
 Heating Sizing Factor Information, Zone PERIMETER_BOT_ZN_3,   1.3300    
 Heating Sizing Factor Information, Zone PERIMETER_BOT_ZN_4,   1.3300    
 Heating Sizing Factor Information, Zone PERIMETER_MID_ZN_1,   1.3300    
 Heating Sizing Factor Information, Zone PERIMETER_MID_ZN_2,   1.3300    
 Heating Sizing Factor Information, Zone PERIMETER_MID_ZN_3,   1.3300    
 Heating Sizing Factor Information, Zone PERIMETER_MID_ZN_4,   1.3300    
 Heating Sizing Factor Information, Zone PERIMETER_TOP_ZN_1,   1.3300    
 Heating Sizing Factor Information, Zone PERIMETER_TOP_ZN_2,   1.3300    
 Heating Sizing Factor Information, Zone PERIMETER_TOP_ZN_3,   1.3300    
 Heating Sizing Factor Information, Zone PERIMETER_TOP_ZN_4,   1.3300    
! <Cooling Sizing Factor Information>, Sizing Factor ID, Value
 Cooling Sizing Factor Information, Global,   1.3300    
 Cooling Sizing Factor Information, Zone CORE_BOTTOM,   1.3300    
 Cooling Sizing Factor Information, Zone CORE_MID,   1.3300    
 Cooling Sizing Factor Information, Zone CORE_TOP,   1.3300    
 Cooling Sizing Factor Information, Zone PERIMETER_BOT_ZN_1,   1.3300    
 Cooling Sizing Factor Information, Zone PERIMETER_BOT_ZN_2,   1.3300    
 Cooling Sizing Factor Information, Zone PERIMETER_BOT_ZN_3,   1.3300    
 Cooling Sizing Factor Information, Zone PERIMETER_BOT_ZN_4,   1.3300    
 Cooling Sizing Factor Information, Zone PERIMETER_MID_ZN_1,   1.3300    
 Cooling Sizing Factor Information, Zone PERIMETER_MID_ZN_2,   1.3300    
 Cooling Sizing Factor Information, Zone PERIMETER_MID_ZN_3,   1.3300    
 Cooling Sizing Factor Information, Zone PERIMETER_MID_ZN_4,   1.3300    
 Cooling Sizing Factor Information, Zone PERIMETER_TOP_ZN_1,   1.3300    
 Cooling Sizing Factor Information, Zone PERIMETER_TOP_ZN_2,   1.3300    
 Cooling Sizing Factor Information, Zone PERIMETER_TOP_ZN_3,   1.3300    
 Cooling Sizing Factor Information, Zone PERIMETER_TOP_ZN_4,   1.3300    
! <Zone Sizing Information>, Zone Name, Load Type, Calc Des Load {W}, User Des Load {W}, Calc Des Air Flow Rate {m3/s}, User Des Air Flow Rate {m3/s}, Design Day Name, Date/Time of Peak, Temperature at Peak {C}, Humidity Ratio at Peak {kgWater/kgDryAir}, Floor Area {m2}, # Occupants, Calc Outdoor Air Flow Rate {m3/s}, Calc DOAS Heat Addition Rate {W}
 Zone Sizing Information, CORE_BOTTOM, Cooling, 35760.56087, 47561.54595, 2.66101, 3.53914, CHICAGO ANN CLG .4% CONDNS WB=>MDB, 7/21 09:00:00, 25.31500, 1.87829E-002, 983.53657, 52.93523, 0.66169, 0.00000
 Zone Sizing Information, CORE_BOTTOM, Heating, 9375.86490, 12469.90032, 0.41154, 0.66169, CHICAGO ANN HTG 99.6% CONDNS DB, 1/21 06:10:00, -20.60000, 6.12575E-004, 983.53657, 52.93523, 0.66169, 0.00000
 Zone Sizing Information, CORE_MID, Cooling, 36149.02691, 48078.20578, 2.64118, 3.51276, CHICAGO ANN CLG .4% CONDNS WB=>MDB, 7/21 07:00:00, 21.46300, 1.64954E-002, 983.53657, 52.93523, 0.66169, 0.00000
 Zone Sizing Information, CORE_MID, Heating, 14077.85495, 18723.54708, 0.61793, 0.82185, CHICAGO ANN HTG 99.6% CONDNS DB, 1/21 06:10:00, -20.60000, 6.12575E-004, 983.53657, 52.93523, 0.66169, 0.00000
 Zone Sizing Information, CORE_TOP, Cooling, 35235.79841, 46863.61188, 2.62187, 3.48709, CHICAGO ANN CLG .4% CONDNS WB=>MDB, 7/21 18:20:00, 28.09700, 1.87829E-002, 983.53657, 52.93523, 0.66169, 0.00000
 Zone Sizing Information, CORE_TOP, Heating, 44345.03525, 58978.89688, 1.94648, 2.58881, CHICAGO ANN HTG 99.6% CONDNS DB, 1/21 06:10:00, -20.60000, 6.12575E-004, 983.53657, 52.93523, 0.66169, 0.00000
 Zone Sizing Information, PERIMETER_BOT_ZN_1, Cooling, 9300.06638, 12369.08828, 0.69221, 0.92063, CHICAGO ANN CLG .4% CONDNS WB=>MDB, 7/21 13:10:00, 30.75417, 1.87829E-002, 207.33814, 11.15921, 0.13949, 0.00000
 Zone Sizing Information, PERIMETER_BOT_ZN_1, Heating, 18258.34424, 24283.59784, 0.80071, 1.06494, CHICAGO ANN HTG 99.6% CONDNS DB, 1/21 06:00:00, -20.60000, 6.12575E-004, 207.33814, 11.15921, 0.13949, 0.00000
 Zone Sizing Information, PERIMETER_BOT_ZN_2, Cooling, 10706.59792, 14239.77523, 0.79685, 1.05981, CHICAGO ANN CLG .4% CONDNS WB=>MDB, 7/21 08:30:00, 24.29850, 1.87829E-002, 131.26219, 7.06470, 8.83088E-002, 0.00000
 Zone Sizing Information, PERIMETER_BOT_ZN_2, Heating, 12125.41431, 16126.80103, 0.53174, 0.70721, CHICAGO ANN HTG 99.6% CONDNS DB, 1/21 06:00:00, -20.60000, 6.12575E-004, 131.26219, 7.06470, 8.83088E-002, 0.00000
 Zone Sizing Information, PERIMETER_BOT_ZN_3, Cooling, 7119.06712, 9468.35928, 0.52988, 0.70475, CHICAGO ANN CLG .4% CONDNS WB=>MDB, 7/21 14:50:00, 31.20000, 1.87829E-002, 207.33814, 11.15921, 0.13949, 0.00000
 Zone Sizing Information, PERIMETER_BOT_ZN_3, Heating, 18091.23168, 24061.33813, 0.79338, 1.05519, CHICAGO ANN HTG 99.6% CONDNS DB, 1/21 06:00:00, -20.60000, 6.12575E-004, 207.33814, 11.15921, 0.13949, 0.00000
 Zone Sizing Information, PERIMETER_BOT_ZN_4, Cooling, 11978.11065, 15930.88716, 0.89150, 1.18570, CHICAGO ANN CLG .4% CONDNS WB=>MDB, 7/21 17:00:00, 29.70200, 1.87829E-002, 131.25358, 7.06424, 8.83030E-002, 0.00000
 Zone Sizing Information, PERIMETER_BOT_ZN_4, Heating, 12112.16481, 16109.17920, 0.53116, 0.70644, CHICAGO ANN HTG 99.6% CONDNS DB, 1/21 06:00:00, -20.60000, 6.12575E-004, 131.25358, 7.06424, 8.83030E-002, 0.00000
 Zone Sizing Information, PERIMETER_MID_ZN_1, Cooling, 11368.86900, 15120.59577, 0.84617, 1.12541, CHICAGO ANN CLG .4% CONDNS WB=>MDB, 7/21 13:00:00, 30.66500, 1.87829E-002, 207.33814, 11.15921, 0.13949, 0.00000
 Zone Sizing Information, PERIMETER_MID_ZN_1, Heating, 19707.27435, 26210.67488, 0.86426, 1.14947, CHICAGO ANN HTG 99.6% CONDNS DB, 1/21 06:00:00, -20.60000, 6.12575E-004, 207.33814, 11.15921, 0.13949, 0.00000
 Zone Sizing Information, PERIMETER_MID_ZN_2, Cooling, 12158.18874, 16170.39103, 0.90487, 1.20348, CHICAGO ANN CLG .4% CONDNS WB=>MDB, 7/21 08:30:00, 24.29850, 1.87829E-002, 131.26219, 7.06470, 8.83088E-002, 0.00000
 Zone Sizing Information, PERIMETER_MID_ZN_2, Heating, 13010.29788, 17303.69618, 0.57055, 0.75883, CHICAGO ANN HTG 99.6% CONDNS DB, 1/21 06:00:00, -20.60000, 6.12575E-004, 131.26219, 7.06470, 8.83088E-002, 0.00000
 Zone Sizing Information, PERIMETER_MID_ZN_3, Cooling, 9133.83564, 12148.00140, 0.67983, 0.90418, CHICAGO ANN CLG .4% CONDNS WB=>MDB, 7/21 15:00:00, 31.20000, 1.87829E-002, 207.33814, 11.15921, 0.13949, 0.00000
 Zone Sizing Information, PERIMETER_MID_ZN_3, Heating, 19568.90695, 26026.64624, 0.85819, 1.14140, CHICAGO ANN HTG 99.6% CONDNS DB, 1/21 06:00:00, -20.60000, 6.12575E-004, 207.33814, 11.15921, 0.13949, 0.00000
 Zone Sizing Information, PERIMETER_MID_ZN_4, Cooling, 13278.10309, 17659.87711, 0.98825, 1.31437, CHICAGO ANN CLG .4% CONDNS WB=>MDB, 7/21 17:00:00, 29.70200, 1.87829E-002, 131.25358, 7.06424, 8.83030E-002, 0.00000
 Zone Sizing Information, PERIMETER_MID_ZN_4, Heating, 13050.62690, 17357.33378, 0.57232, 0.76118, CHICAGO ANN HTG 99.6% CONDNS DB, 1/21 06:00:00, -20.60000, 6.12575E-004, 131.25358, 7.06424, 8.83030E-002, 0.00000
 Zone Sizing Information, PERIMETER_TOP_ZN_1, Cooling, 11881.04357, 15801.78795, 0.88429, 1.17611, CHICAGO ANN CLG .4% CONDNS WB=>MDB, 7/21 13:30:00, 30.93250, 1.87829E-002, 207.33814, 11.15921, 0.13949, 0.00000
 Zone Sizing Information, PERIMETER_TOP_ZN_1, Heating, 26431.12104, 35153.39098, 1.15919, 1.54172, CHICAGO ANN HTG 99.6% CONDNS DB, 1/21 06:00:00, -20.60000, 6.12575E-004, 207.33814, 11.15921, 0.13949, 0.00000
 Zone Sizing Information, PERIMETER_TOP_ZN_2, Cooling, 11729.10883, 15599.71475, 0.87294, 1.16102, CHICAGO ANN CLG .4% CONDNS WB=>MDB, 7/21 08:30:00, 24.29850, 1.87829E-002, 131.26219, 7.06470, 8.83088E-002, 0.00000
 Zone Sizing Information, PERIMETER_TOP_ZN_2, Heating, 17240.54570, 22929.92578, 0.75610, 1.00561, CHICAGO ANN HTG 99.6% CONDNS DB, 1/21 06:00:00, -20.60000, 6.12575E-004, 131.26219, 7.06470, 8.83088E-002, 0.00000
 Zone Sizing Information, PERIMETER_TOP_ZN_3, Cooling, 10172.02886, 13528.79839, 0.75710, 1.00694, CHICAGO ANN CLG .4% CONDNS WB=>MDB, 7/21 15:50:00, 30.66500, 1.87829E-002, 207.33814, 11.15921, 0.13949, 0.00000
 Zone Sizing Information, PERIMETER_TOP_ZN_3, Heating, 26344.78370, 35038.56232, 1.15540, 1.53668, CHICAGO ANN HTG 99.6% CONDNS DB, 1/21 06:00:00, -20.60000, 6.12575E-004, 207.33814, 11.15921, 0.13949, 0.00000
 Zone Sizing Information, PERIMETER_TOP_ZN_4, Cooling, 14048.16550, 18684.06011, 1.04556, 1.39059, CHICAGO ANN CLG .4% CONDNS WB=>MDB, 7/21 17:00:00, 29.70200, 1.87829E-002, 131.25358, 7.06424, 8.83030E-002, 0.00000
 Zone Sizing Information, PERIMETER_TOP_ZN_4, Heating, 17309.73301, 23021.94491, 0.75913, 1.00964, CHICAGO ANN HTG 99.6% CONDNS DB, 1/21 06:00:00, -20.60000, 6.12575E-004, 131.25358, 7.06424, 8.83030E-002, 0.00000
! <System Sizing Information>, System Name, Load Type, Peak Load Kind, User Design Capacity, Calc Des Air Flow Rate [m3/s], User Des Air Flow Rate [m3/s], Design Day Name, Date/Time of Peak
 System Sizing Information, PSZ_1:1, Cooling, Sensible, 54926.17, 3.53914, 3.53914, CHICAGO ANN CLG .4% CONDNS WB=>MDB, 7/21 05:00:00
 System Sizing Information, PSZ_1:1, Heating, Sensible, 47380.23, 0.66169, 0.66169, CHICAGO ANN HTG 99.6% CONDNS DB, 1/21 00:10:00
 System Sizing Information, PSZ_1:2, Cooling, Sensible, 14846.05, 0.92063, 0.92063, CHICAGO ANN CLG .4% CONDNS WB=>MDB, 7/21 05:00:00
 System Sizing Information, PSZ_1:2, Heating, Sensible, 30783.62, 1.06494, 1.06494, CHICAGO ANN HTG 99.6% CONDNS DB, 1/21 06:00:00
 System Sizing Information, PSZ_1:3, Cooling, Sensible, 15114.83, 1.05981, 1.05981, CHICAGO ANN CLG .4% CONDNS WB=>MDB, 7/21 05:00:00
 System Sizing Information, PSZ_1:3, Heating, Sensible, 20230.82, 0.70721, 0.70721, CHICAGO ANN HTG 99.6% CONDNS DB, 1/21 06:00:00
 System Sizing Information, PSZ_1:4, Cooling, Sensible, 11978.09, 0.70475, 0.70475, CHICAGO ANN CLG .4% CONDNS WB=>MDB, 7/21 05:00:00
 System Sizing Information, PSZ_1:4, Heating, Sensible, 30564.59, 1.05519, 1.05519, CHICAGO ANN HTG 99.6% CONDNS DB, 1/21 06:00:00
 System Sizing Information, PSZ_1:5, Cooling, Sensible, 17353.94, 1.18570, 1.18570, CHICAGO ANN CLG .4% CONDNS WB=>MDB, 7/21 05:00:00
 System Sizing Information, PSZ_1:5, Heating, Sensible, 20213.17, 0.70644, 0.70644, CHICAGO ANN HTG 99.6% CONDNS DB, 1/21 06:00:00
 System Sizing Information, PSZ_2:1, Cooling, Sensible, 52073.42, 3.51276, 3.51276, CHICAGO ANN CLG .4% CONDNS WB=>MDB, 7/21 05:00:00
 System Sizing Information, PSZ_2:1, Heating, Sensible, 50975.86, 0.82185, 0.82185, CHICAGO ANN HTG 99.6% CONDNS DB, 1/21 06:10:00
 System Sizing Information, PSZ_2:2, Cooling, Sensible, 17591.18, 1.12541, 1.12541, CHICAGO ANN CLG .4% CONDNS WB=>MDB, 7/21 05:00:00
 System Sizing Information, PSZ_2:2, Heating, Sensible, 32682.67, 1.14947, 1.14947, CHICAGO ANN HTG 99.6% CONDNS DB, 1/21 06:00:00
 System Sizing Information, PSZ_2:3, Cooling, Sensible, 17027.22, 1.20348, 1.20348, CHICAGO ANN CLG .4% CONDNS WB=>MDB, 7/21 05:00:00
 System Sizing Information, PSZ_2:3, Heating, Sensible, 21390.61, 0.75883, 0.75883, CHICAGO ANN HTG 99.6% CONDNS DB, 1/21 06:00:00
 System Sizing Information, PSZ_2:4, Cooling, Sensible, 14696.77, 0.90418, 0.90418, CHICAGO ANN CLG .4% CONDNS WB=>MDB, 7/21 05:00:00
 System Sizing Information, PSZ_2:4, Heating, Sensible, 32501.32, 1.14140, 1.14140, CHICAGO ANN HTG 99.6% CONDNS DB, 1/21 06:00:00
 System Sizing Information, PSZ_2:5, Cooling, Sensible, 19064.71, 1.31437, 1.31437, CHICAGO ANN CLG .4% CONDNS WB=>MDB, 7/21 05:00:00
 System Sizing Information, PSZ_2:5, Heating, Sensible, 21443.18, 0.76118, 0.76118, CHICAGO ANN HTG 99.6% CONDNS DB, 1/21 06:00:00
 System Sizing Information, PSZ_3:1, Cooling, Sensible, 56389.37, 3.48709, 3.48709, CHICAGO ANN CLG .4% CONDNS WB=>MDB, 7/21 05:00:00
 System Sizing Information, PSZ_3:1, Heating, Sensible, 90644.86, 2.58881, 2.58881, CHICAGO ANN HTG 99.6% CONDNS DB, 1/21 06:10:00
 System Sizing Information, PSZ_3:2, Cooling, Sensible, 18315.78, 1.17611, 1.17611, CHICAGO ANN CLG .4% CONDNS WB=>MDB, 7/21 05:00:00
 System Sizing Information, PSZ_3:2, Heating, Sensible, 41495.27, 1.54172, 1.54172, CHICAGO ANN HTG 99.6% CONDNS DB, 1/21 06:00:00
 System Sizing Information, PSZ_3:3, Cooling, Sensible, 16462.23, 1.16102, 1.16102, CHICAGO ANN CLG .4% CONDNS WB=>MDB, 7/21 05:00:00
 System Sizing Information, PSZ_3:3, Heating, Sensible, 26934.97, 1.00561, 1.00561, CHICAGO ANN HTG 99.6% CONDNS DB, 1/21 06:00:00
 System Sizing Information, PSZ_3:4, Cooling, Sensible, 15997.08, 1.00694, 1.00694, CHICAGO ANN CLG .4% CONDNS WB=>MDB, 7/21 05:00:00
 System Sizing Information, PSZ_3:4, Heating, Sensible, 41382.11, 1.53668, 1.53668, CHICAGO ANN HTG 99.6% CONDNS DB, 1/21 06:00:00
 System Sizing Information, PSZ_3:5, Cooling, Sensible, 20077.36, 1.39059, 1.39059, CHICAGO ANN CLG .4% CONDNS WB=>MDB, 7/21 05:00:00
 System Sizing Information, PSZ_3:5, Heating, Sensible, 27025.37, 1.00964, 1.00964, CHICAGO ANN HTG 99.6% CONDNS DB, 1/21 06:00:00
! <Component Sizing Information>, Component Type, Component Name, Input Field Description, Value
 Component Sizing Information, AirTerminal:SingleDuct:Uncontrolled, CORE_BOTTOM DIRECT AIR, Design Size Maximum Air Flow Rate [m3/s], 3.53914
 Component Sizing Information, AirTerminal:SingleDuct:Uncontrolled, CORE_MID DIRECT AIR, Design Size Maximum Air Flow Rate [m3/s], 3.51276
 Component Sizing Information, AirTerminal:SingleDuct:Uncontrolled, CORE_TOP DIRECT AIR, Design Size Maximum Air Flow Rate [m3/s], 3.48709
 Component Sizing Information, AirTerminal:SingleDuct:Uncontrolled, PERIMETER_BOT_ZN_1 DIRECT AIR, Design Size Maximum Air Flow Rate [m3/s], 1.06494
 Component Sizing Information, AirTerminal:SingleDuct:Uncontrolled, PERIMETER_BOT_ZN_2 DIRECT AIR, Design Size Maximum Air Flow Rate [m3/s], 1.05981
 Component Sizing Information, AirTerminal:SingleDuct:Uncontrolled, PERIMETER_BOT_ZN_3 DIRECT AIR, Design Size Maximum Air Flow Rate [m3/s], 1.05519
 Component Sizing Information, AirTerminal:SingleDuct:Uncontrolled, PERIMETER_BOT_ZN_4 DIRECT AIR, Design Size Maximum Air Flow Rate [m3/s], 1.18570
 Component Sizing Information, AirTerminal:SingleDuct:Uncontrolled, PERIMETER_MID_ZN_1 DIRECT AIR, Design Size Maximum Air Flow Rate [m3/s], 1.14947
 Component Sizing Information, AirTerminal:SingleDuct:Uncontrolled, PERIMETER_MID_ZN_2 DIRECT AIR, Design Size Maximum Air Flow Rate [m3/s], 1.20348
 Component Sizing Information, AirTerminal:SingleDuct:Uncontrolled, PERIMETER_MID_ZN_3 DIRECT AIR, Design Size Maximum Air Flow Rate [m3/s], 1.14140
 Component Sizing Information, AirTerminal:SingleDuct:Uncontrolled, PERIMETER_MID_ZN_4 DIRECT AIR, Design Size Maximum Air Flow Rate [m3/s], 1.31437
 Component Sizing Information, AirTerminal:SingleDuct:Uncontrolled, PERIMETER_TOP_ZN_1 DIRECT AIR, Design Size Maximum Air Flow Rate [m3/s], 1.54172
 Component Sizing Information, AirTerminal:SingleDuct:Uncontrolled, PERIMETER_TOP_ZN_2 DIRECT AIR, Design Size Maximum Air Flow Rate [m3/s], 1.16102
 Component Sizing Information, AirTerminal:SingleDuct:Uncontrolled, PERIMETER_TOP_ZN_3 DIRECT AIR, Design Size Maximum Air Flow Rate [m3/s], 1.53668
 Component Sizing Information, AirTerminal:SingleDuct:Uncontrolled, PERIMETER_TOP_ZN_4 DIRECT AIR, Design Size Maximum Air Flow Rate [m3/s], 1.39059
 Component Sizing Information, AirLoopHVAC, PSZ_1:1, Sum of Air Terminal Maximum Heating Flow Rates [m3/s], 3.53914
 Component Sizing Information, AirLoopHVAC, PSZ_1:1, Sum of Air Terminal Minimum Heating Flow Rates [m3/s], 3.53914
 Component Sizing Information, AirLoopHVAC, PSZ_1:1, Sum of Air Terminal Maximum Flow Rates [m3/s], 3.53914
 Component Sizing Information, AirLoopHVAC, PSZ_1:1, Adjusted Heating Design Air Flow Rate [m3/s], 3.53914
 Component Sizing Information, AirLoopHVAC, PSZ_1:1, Adjusted Cooling Design Air Flow Rate [m3/s], 3.53914
 Component Sizing Information, AirLoopHVAC, PSZ_1:1, Adjusted Main Design Air Flow Rate [m3/s], 3.53914
 Component Sizing Information, AirLoopHVAC, PSZ_1:1, User Heating Air Flow Ratio [], 1.00000
 Component Sizing Information, AirLoopHVAC, PSZ_1:1, Calculated Heating Air Flow Ratio [], 1.00000
 Component Sizing Information, AirLoopHVAC, PSZ_1:2, Sum of Air Terminal Maximum Heating Flow Rates [m3/s], 1.06494
 Component Sizing Information, AirLoopHVAC, PSZ_1:2, Sum of Air Terminal Minimum Heating Flow Rates [m3/s], 1.06494
 Component Sizing Information, AirLoopHVAC, PSZ_1:2, Sum of Air Terminal Maximum Flow Rates [m3/s], 1.06494
 Component Sizing Information, AirLoopHVAC, PSZ_1:2, Adjusted Heating Design Air Flow Rate [m3/s], 1.06494
 Component Sizing Information, AirLoopHVAC, PSZ_1:2, Adjusted Cooling Design Air Flow Rate [m3/s], 1.06494
 Component Sizing Information, AirLoopHVAC, PSZ_1:2, Adjusted Main Design Air Flow Rate [m3/s], 1.06494
 Component Sizing Information, AirLoopHVAC, PSZ_1:2, User Heating Air Flow Ratio [], 1.00000
 Component Sizing Information, AirLoopHVAC, PSZ_1:2, Calculated Heating Air Flow Ratio [], 1.00000
 Component Sizing Information, AirLoopHVAC, PSZ_1:3, Sum of Air Terminal Maximum Heating Flow Rates [m3/s], 1.05981
 Component Sizing Information, AirLoopHVAC, PSZ_1:3, Sum of Air Terminal Minimum Heating Flow Rates [m3/s], 1.05981
 Component Sizing Information, AirLoopHVAC, PSZ_1:3, Sum of Air Terminal Maximum Flow Rates [m3/s], 1.05981
 Component Sizing Information, AirLoopHVAC, PSZ_1:3, Adjusted Heating Design Air Flow Rate [m3/s], 1.05981
 Component Sizing Information, AirLoopHVAC, PSZ_1:3, Adjusted Cooling Design Air Flow Rate [m3/s], 1.05981
 Component Sizing Information, AirLoopHVAC, PSZ_1:3, Adjusted Main Design Air Flow Rate [m3/s], 1.05981
 Component Sizing Information, AirLoopHVAC, PSZ_1:3, User Heating Air Flow Ratio [], 1.00000
 Component Sizing Information, AirLoopHVAC, PSZ_1:3, Calculated Heating Air Flow Ratio [], 1.00000
 Component Sizing Information, AirLoopHVAC, PSZ_1:4, Sum of Air Terminal Maximum Heating Flow Rates [m3/s], 1.05519
 Component Sizing Information, AirLoopHVAC, PSZ_1:4, Sum of Air Terminal Minimum Heating Flow Rates [m3/s], 1.05519
 Component Sizing Information, AirLoopHVAC, PSZ_1:4, Sum of Air Terminal Maximum Flow Rates [m3/s], 1.05519
 Component Sizing Information, AirLoopHVAC, PSZ_1:4, Adjusted Heating Design Air Flow Rate [m3/s], 1.05519
 Component Sizing Information, AirLoopHVAC, PSZ_1:4, Adjusted Cooling Design Air Flow Rate [m3/s], 1.05519
 Component Sizing Information, AirLoopHVAC, PSZ_1:4, Adjusted Main Design Air Flow Rate [m3/s], 1.05519
 Component Sizing Information, AirLoopHVAC, PSZ_1:4, User Heating Air Flow Ratio [], 1.00000
 Component Sizing Information, AirLoopHVAC, PSZ_1:4, Calculated Heating Air Flow Ratio [], 1.00000
 Component Sizing Information, AirLoopHVAC, PSZ_1:5, Sum of Air Terminal Maximum Heating Flow Rates [m3/s], 1.18570
 Component Sizing Information, AirLoopHVAC, PSZ_1:5, Sum of Air Terminal Minimum Heating Flow Rates [m3/s], 1.18570
 Component Sizing Information, AirLoopHVAC, PSZ_1:5, Sum of Air Terminal Maximum Flow Rates [m3/s], 1.18570
 Component Sizing Information, AirLoopHVAC, PSZ_1:5, Adjusted Heating Design Air Flow Rate [m3/s], 1.18570
 Component Sizing Information, AirLoopHVAC, PSZ_1:5, Adjusted Cooling Design Air Flow Rate [m3/s], 1.18570
 Component Sizing Information, AirLoopHVAC, PSZ_1:5, Adjusted Main Design Air Flow Rate [m3/s], 1.18570
 Component Sizing Information, AirLoopHVAC, PSZ_1:5, User Heating Air Flow Ratio [], 1.00000
 Component Sizing Information, AirLoopHVAC, PSZ_1:5, Calculated Heating Air Flow Ratio [], 1.00000
 Component Sizing Information, AirLoopHVAC, PSZ_2:1, Sum of Air Terminal Maximum Heating Flow Rates [m3/s], 3.51276
 Component Sizing Information, AirLoopHVAC, PSZ_2:1, Sum of Air Terminal Minimum Heating Flow Rates [m3/s], 3.51276
 Component Sizing Information, AirLoopHVAC, PSZ_2:1, Sum of Air Terminal Maximum Flow Rates [m3/s], 3.51276
 Component Sizing Information, AirLoopHVAC, PSZ_2:1, Adjusted Heating Design Air Flow Rate [m3/s], 3.51276
 Component Sizing Information, AirLoopHVAC, PSZ_2:1, Adjusted Cooling Design Air Flow Rate [m3/s], 3.51276
 Component Sizing Information, AirLoopHVAC, PSZ_2:1, Adjusted Main Design Air Flow Rate [m3/s], 3.51276
 Component Sizing Information, AirLoopHVAC, PSZ_2:1, User Heating Air Flow Ratio [], 1.00000
 Component Sizing Information, AirLoopHVAC, PSZ_2:1, Calculated Heating Air Flow Ratio [], 1.00000
 Component Sizing Information, AirLoopHVAC, PSZ_2:2, Sum of Air Terminal Maximum Heating Flow Rates [m3/s], 1.14947
 Component Sizing Information, AirLoopHVAC, PSZ_2:2, Sum of Air Terminal Minimum Heating Flow Rates [m3/s], 1.14947
 Component Sizing Information, AirLoopHVAC, PSZ_2:2, Sum of Air Terminal Maximum Flow Rates [m3/s], 1.14947
 Component Sizing Information, AirLoopHVAC, PSZ_2:2, Adjusted Heating Design Air Flow Rate [m3/s], 1.14947
 Component Sizing Information, AirLoopHVAC, PSZ_2:2, Adjusted Cooling Design Air Flow Rate [m3/s], 1.14947
 Component Sizing Information, AirLoopHVAC, PSZ_2:2, Adjusted Main Design Air Flow Rate [m3/s], 1.14947
 Component Sizing Information, AirLoopHVAC, PSZ_2:2, User Heating Air Flow Ratio [], 1.00000
 Component Sizing Information, AirLoopHVAC, PSZ_2:2, Calculated Heating Air Flow Ratio [], 1.00000
 Component Sizing Information, AirLoopHVAC, PSZ_2:3, Sum of Air Terminal Maximum Heating Flow Rates [m3/s], 1.20348
 Component Sizing Information, AirLoopHVAC, PSZ_2:3, Sum of Air Terminal Minimum Heating Flow Rates [m3/s], 1.20348
 Component Sizing Information, AirLoopHVAC, PSZ_2:3, Sum of Air Terminal Maximum Flow Rates [m3/s], 1.20348
 Component Sizing Information, AirLoopHVAC, PSZ_2:3, Adjusted Heating Design Air Flow Rate [m3/s], 1.20348
 Component Sizing Information, AirLoopHVAC, PSZ_2:3, Adjusted Cooling Design Air Flow Rate [m3/s], 1.20348
 Component Sizing Information, AirLoopHVAC, PSZ_2:3, Adjusted Main Design Air Flow Rate [m3/s], 1.20348
 Component Sizing Information, AirLoopHVAC, PSZ_2:3, User Heating Air Flow Ratio [], 1.00000
 Component Sizing Information, AirLoopHVAC, PSZ_2:3, Calculated Heating Air Flow Ratio [], 1.00000
 Component Sizing Information, AirLoopHVAC, PSZ_2:4, Sum of Air Terminal Maximum Heating Flow Rates [m3/s], 1.14140
 Component Sizing Information, AirLoopHVAC, PSZ_2:4, Sum of Air Terminal Minimum Heating Flow Rates [m3/s], 1.14140
 Component Sizing Information, AirLoopHVAC, PSZ_2:4, Sum of Air Terminal Maximum Flow Rates [m3/s], 1.14140
 Component Sizing Information, AirLoopHVAC, PSZ_2:4, Adjusted Heating Design Air Flow Rate [m3/s], 1.14140
 Component Sizing Information, AirLoopHVAC, PSZ_2:4, Adjusted Cooling Design Air Flow Rate [m3/s], 1.14140
 Component Sizing Information, AirLoopHVAC, PSZ_2:4, Adjusted Main Design Air Flow Rate [m3/s], 1.14140
 Component Sizing Information, AirLoopHVAC, PSZ_2:4, User Heating Air Flow Ratio [], 1.00000
 Component Sizing Information, AirLoopHVAC, PSZ_2:4, Calculated Heating Air Flow Ratio [], 1.00000
 Component Sizing Information, AirLoopHVAC, PSZ_2:5, Sum of Air Terminal Maximum Heating Flow Rates [m3/s], 1.31437
 Component Sizing Information, AirLoopHVAC, PSZ_2:5, Sum of Air Terminal Minimum Heating Flow Rates [m3/s], 1.31437
 Component Sizing Information, AirLoopHVAC, PSZ_2:5, Sum of Air Terminal Maximum Flow Rates [m3/s], 1.31437
 Component Sizing Information, AirLoopHVAC, PSZ_2:5, Adjusted Heating Design Air Flow Rate [m3/s], 1.31437
 Component Sizing Information, AirLoopHVAC, PSZ_2:5, Adjusted Cooling Design Air Flow Rate [m3/s], 1.31437
 Component Sizing Information, AirLoopHVAC, PSZ_2:5, Adjusted Main Design Air Flow Rate [m3/s], 1.31437
 Component Sizing Information, AirLoopHVAC, PSZ_2:5, User Heating Air Flow Ratio [], 1.00000
 Component Sizing Information, AirLoopHVAC, PSZ_2:5, Calculated Heating Air Flow Ratio [], 1.00000
 Component Sizing Information, AirLoopHVAC, PSZ_3:1, Sum of Air Terminal Maximum Heating Flow Rates [m3/s], 3.48709
 Component Sizing Information, AirLoopHVAC, PSZ_3:1, Sum of Air Terminal Minimum Heating Flow Rates [m3/s], 3.48709
 Component Sizing Information, AirLoopHVAC, PSZ_3:1, Sum of Air Terminal Maximum Flow Rates [m3/s], 3.48709
 Component Sizing Information, AirLoopHVAC, PSZ_3:1, Adjusted Heating Design Air Flow Rate [m3/s], 3.48709
 Component Sizing Information, AirLoopHVAC, PSZ_3:1, Adjusted Cooling Design Air Flow Rate [m3/s], 3.48709
 Component Sizing Information, AirLoopHVAC, PSZ_3:1, Adjusted Main Design Air Flow Rate [m3/s], 3.48709
 Component Sizing Information, AirLoopHVAC, PSZ_3:1, User Heating Air Flow Ratio [], 1.00000
 Component Sizing Information, AirLoopHVAC, PSZ_3:1, Calculated Heating Air Flow Ratio [], 1.00000
 Component Sizing Information, AirLoopHVAC, PSZ_3:2, Sum of Air Terminal Maximum Heating Flow Rates [m3/s], 1.54172
 Component Sizing Information, AirLoopHVAC, PSZ_3:2, Sum of Air Terminal Minimum Heating Flow Rates [m3/s], 1.54172
 Component Sizing Information, AirLoopHVAC, PSZ_3:2, Sum of Air Terminal Maximum Flow Rates [m3/s], 1.54172
 Component Sizing Information, AirLoopHVAC, PSZ_3:2, Adjusted Heating Design Air Flow Rate [m3/s], 1.54172
 Component Sizing Information, AirLoopHVAC, PSZ_3:2, Adjusted Cooling Design Air Flow Rate [m3/s], 1.54172
 Component Sizing Information, AirLoopHVAC, PSZ_3:2, Adjusted Main Design Air Flow Rate [m3/s], 1.54172
 Component Sizing Information, AirLoopHVAC, PSZ_3:2, User Heating Air Flow Ratio [], 1.00000
 Component Sizing Information, AirLoopHVAC, PSZ_3:2, Calculated Heating Air Flow Ratio [], 1.00000
 Component Sizing Information, AirLoopHVAC, PSZ_3:3, Sum of Air Terminal Maximum Heating Flow Rates [m3/s], 1.16102
 Component Sizing Information, AirLoopHVAC, PSZ_3:3, Sum of Air Terminal Minimum Heating Flow Rates [m3/s], 1.16102
 Component Sizing Information, AirLoopHVAC, PSZ_3:3, Sum of Air Terminal Maximum Flow Rates [m3/s], 1.16102
 Component Sizing Information, AirLoopHVAC, PSZ_3:3, Adjusted Heating Design Air Flow Rate [m3/s], 1.16102
 Component Sizing Information, AirLoopHVAC, PSZ_3:3, Adjusted Cooling Design Air Flow Rate [m3/s], 1.16102
 Component Sizing Information, AirLoopHVAC, PSZ_3:3, Adjusted Main Design Air Flow Rate [m3/s], 1.16102
 Component Sizing Information, AirLoopHVAC, PSZ_3:3, User Heating Air Flow Ratio [], 1.00000
 Component Sizing Information, AirLoopHVAC, PSZ_3:3, Calculated Heating Air Flow Ratio [], 1.00000
 Component Sizing Information, AirLoopHVAC, PSZ_3:4, Sum of Air Terminal Maximum Heating Flow Rates [m3/s], 1.53668
 Component Sizing Information, AirLoopHVAC, PSZ_3:4, Sum of Air Terminal Minimum Heating Flow Rates [m3/s], 1.53668
 Component Sizing Information, AirLoopHVAC, PSZ_3:4, Sum of Air Terminal Maximum Flow Rates [m3/s], 1.53668
 Component Sizing Information, AirLoopHVAC, PSZ_3:4, Adjusted Heating Design Air Flow Rate [m3/s], 1.53668
 Component Sizing Information, AirLoopHVAC, PSZ_3:4, Adjusted Cooling Design Air Flow Rate [m3/s], 1.53668
 Component Sizing Information, AirLoopHVAC, PSZ_3:4, Adjusted Main Design Air Flow Rate [m3/s], 1.53668
 Component Sizing Information, AirLoopHVAC, PSZ_3:4, User Heating Air Flow Ratio [], 1.00000
 Component Sizing Information, AirLoopHVAC, PSZ_3:4, Calculated Heating Air Flow Ratio [], 1.00000
 Component Sizing Information, AirLoopHVAC, PSZ_3:5, Sum of Air Terminal Maximum Heating Flow Rates [m3/s], 1.39059
[...]
 Component Sizing Information, Controller:OutdoorAir, PSZ_1:5_OA_CONTROLLER, Maximum Outdoor Air Flow Rate [m3/s], 1.18570
 Component Sizing Information, Controller:OutdoorAir, PSZ_1:5_OA_CONTROLLER, Minimum Outdoor Air Flow Rate [m3/s], 8.83030E-002
 Component Sizing Information, Coil:Cooling:DX:TwoSpeed, PSZ_1:5_COOLC DXCOIL, Design Size High Speed Rated Air Flow Rate [m3/s], 1.18570
 Component Sizing Information, Coil:Cooling:DX:TwoSpeed, PSZ_1:5_COOLC DXCOIL, Design Size High Speed Gross Rated Total Cooling Capacity [W], 22786.39314
 Component Sizing Information, Coil:Cooling:DX:TwoSpeed, PSZ_1:5_COOLC DXCOIL, Design Size High Speed Rated Sensible Heat Ratio, 0.78869
 Component Sizing Information, Coil:Cooling:DX:TwoSpeed, PSZ_1:5_COOLC DXCOIL, Design Size Low Speed Rated Air Flow Rate [m3/s], 0.39519
 Component Sizing Information, Coil:Cooling:DX:TwoSpeed, PSZ_1:5_COOLC DXCOIL, Design Size Low Speed Gross Rated Total Cooling Capacity [W], 7594.70484
 Component Sizing Information, Coil:Cooling:DX:TwoSpeed, PSZ_1:5_COOLC DXCOIL, Design Size Low Speed Gross Rated Sensible Heat Ratio, 0.78869
 Component Sizing Information, Coil:Heating:Fuel, PSZ_1:5_HEATC, Design Size Nominal Capacity [W], 30982.77924
 Component Sizing Information, Fan:ConstantVolume, PSZ_1:5_FAN, Design Size Maximum Flow Rate [m3/s], 1.18570
 Component Sizing Information, Controller:OutdoorAir, PSZ_2:1_OA_CONTROLLER, Maximum Outdoor Air Flow Rate [m3/s], 3.51276
 Component Sizing Information, Controller:OutdoorAir, PSZ_2:1_OA_CONTROLLER, Minimum Outdoor Air Flow Rate [m3/s], 0.66169
 Component Sizing Information, Coil:Cooling:DX:TwoSpeed, PSZ_2:1_COOLC DXCOIL, Design Size High Speed Rated Air Flow Rate [m3/s], 3.51276
 Component Sizing Information, Coil:Cooling:DX:TwoSpeed, PSZ_2:1_COOLC DXCOIL, Design Size High Speed Gross Rated Total Cooling Capacity [W], 68890.11380
 Component Sizing Information, Coil:Cooling:DX:TwoSpeed, PSZ_2:1_COOLC DXCOIL, Design Size High Speed Rated Sensible Heat Ratio, 0.78033
 Component Sizing Information, Coil:Cooling:DX:TwoSpeed, PSZ_2:1_COOLC DXCOIL, Design Size Low Speed Rated Air Flow Rate [m3/s], 1.17080
 Component Sizing Information, Coil:Cooling:DX:TwoSpeed, PSZ_2:1_COOLC DXCOIL, Design Size Low Speed Gross Rated Total Cooling Capacity [W], 22961.07493
 Component Sizing Information, Coil:Cooling:DX:TwoSpeed, PSZ_2:1_COOLC DXCOIL, Design Size Low Speed Gross Rated Sensible Heat Ratio, 0.78033
 Component Sizing Information, Coil:Heating:Fuel, PSZ_2:1_HEATC, Design Size Nominal Capacity [W], 111387.87087
 Component Sizing Information, Fan:ConstantVolume, PSZ_2:1_FAN, Design Size Maximum Flow Rate [m3/s], 3.51276
 Component Sizing Information, Controller:OutdoorAir, PSZ_2:2_OA_CONTROLLER, Maximum Outdoor Air Flow Rate [m3/s], 1.14947
 Component Sizing Information, Controller:OutdoorAir, PSZ_2:2_OA_CONTROLLER, Minimum Outdoor Air Flow Rate [m3/s], 0.13949
 Component Sizing Information, Coil:Cooling:DX:TwoSpeed, PSZ_2:2_COOLC DXCOIL, Design Size High Speed Rated Air Flow Rate [m3/s], 1.14947
 Component Sizing Information, Coil:Cooling:DX:TwoSpeed, PSZ_2:2_COOLC DXCOIL, Design Size High Speed Gross Rated Total Cooling Capacity [W], 24982.18497
 Component Sizing Information, Coil:Cooling:DX:TwoSpeed, PSZ_2:2_COOLC DXCOIL, Design Size High Speed Rated Sensible Heat Ratio, 0.74103
 Component Sizing Information, Coil:Cooling:DX:TwoSpeed, PSZ_2:2_COOLC DXCOIL, Design Size Low Speed Rated Air Flow Rate [m3/s], 0.38312
 Component Sizing Information, Coil:Cooling:DX:TwoSpeed, PSZ_2:2_COOLC DXCOIL, Design Size Low Speed Gross Rated Total Cooling Capacity [W], 8326.56225
 Component Sizing Information, Coil:Cooling:DX:TwoSpeed, PSZ_2:2_COOLC DXCOIL, Design Size Low Speed Gross Rated Sensible Heat Ratio, 0.74103
 Component Sizing Information, Coil:Heating:Fuel, PSZ_2:2_HEATC, Design Size Nominal Capacity [W], 32682.67486
 Component Sizing Information, Fan:ConstantVolume, PSZ_2:2_FAN, Design Size Maximum Flow Rate [m3/s], 1.14947
 Component Sizing Information, Controller:OutdoorAir, PSZ_2:3_OA_CONTROLLER, Maximum Outdoor Air Flow Rate [m3/s], 1.20348
 Component Sizing Information, Controller:OutdoorAir, PSZ_2:3_OA_CONTROLLER, Minimum Outdoor Air Flow Rate [m3/s], 8.83088E-002
 Component Sizing Information, Coil:Cooling:DX:TwoSpeed, PSZ_2:3_COOLC DXCOIL, Design Size High Speed Rated Air Flow Rate [m3/s], 1.20348
 Component Sizing Information, Coil:Cooling:DX:TwoSpeed, PSZ_2:3_COOLC DXCOIL, Design Size High Speed Gross Rated Total Cooling Capacity [W], 21714.77124
 Component Sizing Information, Coil:Cooling:DX:TwoSpeed, PSZ_2:3_COOLC DXCOIL, Design Size High Speed Rated Sensible Heat Ratio, 0.80030
 Component Sizing Information, Coil:Cooling:DX:TwoSpeed, PSZ_2:3_COOLC DXCOIL, Design Size Low Speed Rated Air Flow Rate [m3/s], 0.40112
 Component Sizing Information, Coil:Cooling:DX:TwoSpeed, PSZ_2:3_COOLC DXCOIL, Design Size Low Speed Gross Rated Total Cooling Capacity [W], 7237.53326
 Component Sizing Information, Coil:Cooling:DX:TwoSpeed, PSZ_2:3_COOLC DXCOIL, Design Size Low Speed Gross Rated Sensible Heat Ratio, 0.80030
 Component Sizing Information, Coil:Heating:Fuel, PSZ_2:3_HEATC, Design Size Nominal Capacity [W], 31382.37341
 Component Sizing Information, Fan:ConstantVolume, PSZ_2:3_FAN, Design Size Maximum Flow Rate [m3/s], 1.20348
 Component Sizing Information, Controller:OutdoorAir, PSZ_2:4_OA_CONTROLLER, Maximum Outdoor Air Flow Rate [m3/s], 1.14140
 Component Sizing Information, Controller:OutdoorAir, PSZ_2:4_OA_CONTROLLER, Minimum Outdoor Air Flow Rate [m3/s], 0.13949
 Component Sizing Information, Coil:Cooling:DX:TwoSpeed, PSZ_2:4_COOLC DXCOIL, Design Size High Speed Rated Air Flow Rate [m3/s], 1.14140
 Component Sizing Information, Coil:Cooling:DX:TwoSpeed, PSZ_2:4_COOLC DXCOIL, Design Size High Speed Gross Rated Total Cooling Capacity [W], 26486.61748
 Component Sizing Information, Coil:Cooling:DX:TwoSpeed, PSZ_2:4_COOLC DXCOIL, Design Size High Speed Rated Sensible Heat Ratio, 0.71927
 Component Sizing Information, Coil:Cooling:DX:TwoSpeed, PSZ_2:4_COOLC DXCOIL, Design Size Low Speed Rated Air Flow Rate [m3/s], 0.38043
 Component Sizing Information, Coil:Cooling:DX:TwoSpeed, PSZ_2:4_COOLC DXCOIL, Design Size Low Speed Gross Rated Total Cooling Capacity [W], 8827.98961
 Component Sizing Information, Coil:Cooling:DX:TwoSpeed, PSZ_2:4_COOLC DXCOIL, Design Size Low Speed Gross Rated Sensible Heat Ratio, 0.71927
 Component Sizing Information, Coil:Heating:Fuel, PSZ_2:4_HEATC, Design Size Nominal Capacity [W], 32501.32129
 Component Sizing Information, Fan:ConstantVolume, PSZ_2:4_FAN, Design Size Maximum Flow Rate [m3/s], 1.14140
 Component Sizing Information, Controller:OutdoorAir, PSZ_2:5_OA_CONTROLLER, Maximum Outdoor Air Flow Rate [m3/s], 1.31437
 Component Sizing Information, Controller:OutdoorAir, PSZ_2:5_OA_CONTROLLER, Minimum Outdoor Air Flow Rate [m3/s], 8.83030E-002
 Component Sizing Information, Coil:Cooling:DX:TwoSpeed, PSZ_2:5_COOLC DXCOIL, Design Size High Speed Rated Air Flow Rate [m3/s], 1.31437
 Component Sizing Information, Coil:Cooling:DX:TwoSpeed, PSZ_2:5_COOLC DXCOIL, Design Size High Speed Gross Rated Total Cooling Capacity [W], 24790.14807
 Component Sizing Information, Coil:Cooling:DX:TwoSpeed, PSZ_2:5_COOLC DXCOIL, Design Size High Speed Rated Sensible Heat Ratio, 0.79668
 Component Sizing Information, Coil:Cooling:DX:TwoSpeed, PSZ_2:5_COOLC DXCOIL, Design Size Low Speed Rated Air Flow Rate [m3/s], 0.43808
 Component Sizing Information, Coil:Cooling:DX:TwoSpeed, PSZ_2:5_COOLC DXCOIL, Design Size Low Speed Gross Rated Total Cooling Capacity [W], 8262.55635
 Component Sizing Information, Coil:Cooling:DX:TwoSpeed, PSZ_2:5_COOLC DXCOIL, Design Size Low Speed Gross Rated Sensible Heat Ratio, 0.79668
 Component Sizing Information, Coil:Heating:Fuel, PSZ_2:5_HEATC, Design Size Nominal Capacity [W], 33873.77967
 Component Sizing Information, Fan:ConstantVolume, PSZ_2:5_FAN, Design Size Maximum Flow Rate [m3/s], 1.31437
 Component Sizing Information, Controller:OutdoorAir, PSZ_3:1_OA_CONTROLLER, Maximum Outdoor Air Flow Rate [m3/s], 3.48709
 Component Sizing Information, Controller:OutdoorAir, PSZ_3:1_OA_CONTROLLER, Minimum Outdoor Air Flow Rate [m3/s], 0.66169
 Component Sizing Information, Coil:Cooling:DX:TwoSpeed, PSZ_3:1_COOLC DXCOIL, Design Size High Speed Rated Air Flow Rate [m3/s], 3.48709
 Component Sizing Information, Coil:Cooling:DX:TwoSpeed, PSZ_3:1_COOLC DXCOIL, Design Size High Speed Gross Rated Total Cooling Capacity [W], 81121.90027
 Component Sizing Information, Coil:Cooling:DX:TwoSpeed, PSZ_3:1_COOLC DXCOIL, Design Size High Speed Rated Sensible Heat Ratio, 0.71861
 Component Sizing Information, Coil:Cooling:DX:TwoSpeed, PSZ_3:1_COOLC DXCOIL, Design Size Low Speed Rated Air Flow Rate [m3/s], 1.16225
 Component Sizing Information, Coil:Cooling:DX:TwoSpeed, PSZ_3:1_COOLC DXCOIL, Design Size Low Speed Gross Rated Total Cooling Capacity [W], 27037.92936
 Component Sizing Information, Coil:Cooling:DX:TwoSpeed, PSZ_3:1_COOLC DXCOIL, Design Size Low Speed Gross Rated Sensible Heat Ratio, 0.71861
 Component Sizing Information, Coil:Heating:Fuel, PSZ_3:1_HEATC, Design Size Nominal Capacity [W], 110811.47289
 Component Sizing Information, Fan:ConstantVolume, PSZ_3:1_FAN, Design Size Maximum Flow Rate [m3/s], 3.48709
 Component Sizing Information, Controller:OutdoorAir, PSZ_3:2_OA_CONTROLLER, Maximum Outdoor Air Flow Rate [m3/s], 1.54172
 Component Sizing Information, Controller:OutdoorAir, PSZ_3:2_OA_CONTROLLER, Minimum Outdoor Air Flow Rate [m3/s], 0.13949
 Component Sizing Information, Coil:Cooling:DX:TwoSpeed, PSZ_3:2_COOLC DXCOIL, Design Size High Speed Rated Air Flow Rate [m3/s], 1.54172
 Component Sizing Information, Coil:Cooling:DX:TwoSpeed, PSZ_3:2_COOLC DXCOIL, Design Size High Speed Gross Rated Total Cooling Capacity [W], 33188.83854
 Component Sizing Information, Coil:Cooling:DX:TwoSpeed, PSZ_3:2_COOLC DXCOIL, Design Size High Speed Rated Sensible Heat Ratio, 0.74471
 Component Sizing Information, Coil:Cooling:DX:TwoSpeed, PSZ_3:2_COOLC DXCOIL, Design Size Low Speed Rated Air Flow Rate [m3/s], 0.51385
 Component Sizing Information, Coil:Cooling:DX:TwoSpeed, PSZ_3:2_COOLC DXCOIL, Design Size Low Speed Gross Rated Total Cooling Capacity [W], 11061.83989
 Component Sizing Information, Coil:Cooling:DX:TwoSpeed, PSZ_3:2_COOLC DXCOIL, Design Size Low Speed Gross Rated Sensible Heat Ratio, 0.74471
 Component Sizing Information, Coil:Heating:Fuel, PSZ_3:2_HEATC, Design Size Nominal Capacity [W], 41495.27060
 Component Sizing Information, Fan:ConstantVolume, PSZ_3:2_FAN, Design Size Maximum Flow Rate [m3/s], 1.54172
 Component Sizing Information, Controller:OutdoorAir, PSZ_3:3_OA_CONTROLLER, Maximum Outdoor Air Flow Rate [m3/s], 1.16102
 Component Sizing Information, Controller:OutdoorAir, PSZ_3:3_OA_CONTROLLER, Minimum Outdoor Air Flow Rate [m3/s], 8.83088E-002
 Component Sizing Information, Coil:Cooling:DX:TwoSpeed, PSZ_3:3_COOLC DXCOIL, Design Size High Speed Rated Air Flow Rate [m3/s], 1.16102
 Component Sizing Information, Coil:Cooling:DX:TwoSpeed, PSZ_3:3_COOLC DXCOIL, Design Size High Speed Gross Rated Total Cooling Capacity [W], 21081.00747
 Component Sizing Information, Coil:Cooling:DX:TwoSpeed, PSZ_3:3_COOLC DXCOIL, Design Size High Speed Rated Sensible Heat Ratio, 0.80018
 Component Sizing Information, Coil:Cooling:DX:TwoSpeed, PSZ_3:3_COOLC DXCOIL, Design Size Low Speed Rated Air Flow Rate [m3/s], 0.38697
 Component Sizing Information, Coil:Cooling:DX:TwoSpeed, PSZ_3:3_COOLC DXCOIL, Design Size Low Speed Gross Rated Total Cooling Capacity [W], 7026.29979
 Component Sizing Information, Coil:Cooling:DX:TwoSpeed, PSZ_3:3_COOLC DXCOIL, Design Size Low Speed Gross Rated Sensible Heat Ratio, 0.80018
 Component Sizing Information, Coil:Heating:Fuel, PSZ_3:3_HEATC, Design Size Nominal Capacity [W], 30426.98857
 Component Sizing Information, Fan:ConstantVolume, PSZ_3:3_FAN, Design Size Maximum Flow Rate [m3/s], 1.16102
 Component Sizing Information, Controller:OutdoorAir, PSZ_3:4_OA_CONTROLLER, Maximum Outdoor Air Flow Rate [m3/s], 1.53668
 Component Sizing Information, Controller:OutdoorAir, PSZ_3:4_OA_CONTROLLER, Minimum Outdoor Air Flow Rate [m3/s], 0.13949
 Component Sizing Information, Coil:Cooling:DX:TwoSpeed, PSZ_3:4_COOLC DXCOIL, Design Size High Speed Rated Air Flow Rate [m3/s], 1.53668
 Component Sizing Information, Coil:Cooling:DX:TwoSpeed, PSZ_3:4_COOLC DXCOIL, Design Size High Speed Gross Rated Total Cooling Capacity [W], 34306.67616
 Component Sizing Information, Coil:Cooling:DX:TwoSpeed, PSZ_3:4_COOLC DXCOIL, Design Size High Speed Rated Sensible Heat Ratio, 0.73261
 Component Sizing Information, Coil:Cooling:DX:TwoSpeed, PSZ_3:4_COOLC DXCOIL, Design Size Low Speed Rated Air Flow Rate [m3/s], 0.51218
 Component Sizing Information, Coil:Cooling:DX:TwoSpeed, PSZ_3:4_COOLC DXCOIL, Design Size Low Speed Gross Rated Total Cooling Capacity [W], 11434.41516
 Component Sizing Information, Coil:Cooling:DX:TwoSpeed, PSZ_3:4_COOLC DXCOIL, Design Size Low Speed Gross Rated Sensible Heat Ratio, 0.73261
 Component Sizing Information, Coil:Heating:Fuel, PSZ_3:4_HEATC, Design Size Nominal Capacity [W], 41382.10918
 Component Sizing Information, Fan:ConstantVolume, PSZ_3:4_FAN, Design Size Maximum Flow Rate [m3/s], 1.53668
 Component Sizing Information, Controller:OutdoorAir, PSZ_3:5_OA_CONTROLLER, Maximum Outdoor Air Flow Rate [m3/s], 1.39059
 Component Sizing Information, Controller:OutdoorAir, PSZ_3:5_OA_CONTROLLER, Minimum Outdoor Air Flow Rate [m3/s], 8.83030E-002
 Component Sizing Information, Coil:Cooling:DX:TwoSpeed, PSZ_3:5_COOLC DXCOIL, Design Size High Speed Rated Air Flow Rate [m3/s], 1.39059
 Component Sizing Information, Coil:Cooling:DX:TwoSpeed, PSZ_3:5_COOLC DXCOIL, Design Size High Speed Gross Rated Total Cooling Capacity [W], 25907.82442
 Component Sizing Information, Coil:Cooling:DX:TwoSpeed, PSZ_3:5_COOLC DXCOIL, Design Size High Speed Rated Sensible Heat Ratio, 0.80066
 Component Sizing Information, Coil:Cooling:DX:TwoSpeed, PSZ_3:5_COOLC DXCOIL, Design Size Low Speed Rated Air Flow Rate [m3/s], 0.46348
 Component Sizing Information, Coil:Cooling:DX:TwoSpeed, PSZ_3:5_COOLC DXCOIL, Design Size Low Speed Gross Rated Total Cooling Capacity [W], 8635.07788
 Component Sizing Information, Coil:Cooling:DX:TwoSpeed, PSZ_3:5_COOLC DXCOIL, Design Size Low Speed Gross Rated Sensible Heat Ratio, 0.80066
 Component Sizing Information, Coil:Heating:Fuel, PSZ_3:5_HEATC, Design Size Nominal Capacity [W], 35585.19770
 Component Sizing Information, Fan:ConstantVolume, PSZ_3:5_FAN, Design Size Maximum Flow Rate [m3/s], 1.39059
Water Heater Information,WaterHeater:Mixed,SWHSYS1 WATER HEATER,0.3785,845000.0,1.832,0.5680
 Component Sizing Information, PlantLoop, SWHSYS1, Maximum Loop Flow Rate [m3/s], 3.12000E-005
 Component Sizing Information, PlantLoop, SWHSYS1, Plant Loop Volume [m3], 3.74400E-003
 Component Sizing Information, Pump:ConstantSpeed, SWHSYS1 PUMP, Design Flow Rate [m3/s], 3.12000E-005
 Component Sizing Information, Pump:ConstantSpeed, SWHSYS1 PUMP, Design Power Consumption [W], 8.44009
 Component Sizing Information, WaterHeater:Mixed, SWHSYS1 WATER HEATER, Use Side Design Flow Rate [m3/s], 3.12000E-005
! <Environment>,Environment Name,Environment Type, Start Date, End Date, Start DayOfWeek, Duration {#days}, Source:Start DayOfWeek,  Use Daylight Saving, Use Holidays, Apply Weekend Holiday Rule,  Use Rain Values, Use Snow Values
! <Environment:Special Days>, Special Day Name, Special Day Type, Source, Start Date, Duration {#days}
! <Environment:Daylight Saving>, Daylight Saving Indicator, Source, Start Date, End Date
! <Environment:WarmupDays>, NumberofWarmupDays
Environment,RUNPERIOD 1,WeatherFileRunPeriod,01/01/2017,12/31/2017,Sunday,365,Use RunPeriod Specified Day,No,No,No,Yes,Yes
Environment:Daylight Saving,Yes,InputFile,03/12,11/05
Environment:Special Days,NEW YEARS DAY,Holiday,InputFile,01/01,  1
Environment:Special Days,VETERANS DAY,Holiday,InputFile,11/11,  1
Environment:Special Days,CHRISTMAS,Holiday,InputFile,12/25,  1
Environment:Special Days,INDEPENDENCE DAY,Holiday,InputFile,07/04,  1
Environment:Special Days,MLK DAY,Holiday,InputFile,01/16,  1
Environment:Special Days,PRESIDENTS DAY,Holiday,InputFile,02/20,  1
Environment:Special Days,MEMORIAL DAY,Holiday,InputFile,05/29,  1
Environment:Special Days,LABOR DAY,Holiday,InputFile,09/04,  1
Environment:Special Days,COLUMBUS DAY,Holiday,InputFile,10/09,  1
Environment:Special Days,THANKSGIVING,Holiday,InputFile,11/23,  1
Environment:WarmupDays,  6
! <Warmup Convergence Information>,Zone Name,Environment Type/Name,Average Warmup Temperature Difference {deltaC},Std Dev Warmup Temperature Difference {deltaC},Max Temperature Pass/Fail Convergence,Min Temperature Pass/Fail Convergence,Average Warmup Load Difference {W},Std Dev Warmup Load Difference {W},Heating Load Pass/Fail Convergence,Cooling Load Pass/Fail Convergence
 Warmup Convergence Information,CORE_BOTTOM,RunPeriod: RUNPERIOD 1,6.4838019713E-003,7.0151336464E-003,Pass,Pass,0.0000000000,0.0000000000,Pass,Pass
 Warmup Convergence Information,CORE_MID,RunPeriod: RUNPERIOD 1,0.1767248978,0.1583847147,Pass,Pass,1.5482013695,3.1612724485,Pass,Pass
 Warmup Convergence Information,CORE_TOP,RunPeriod: RUNPERIOD 1,0.6846233918,0.6696060348,Pass,Pass,0.5737288160,0.5031371100,Pass,Pass
 Warmup Convergence Information,FIRSTFLOOR_PLENUM,RunPeriod: RUNPERIOD 1,2.0710013235E-002,2.6045758443E-002,Pass,Pass,0.0000000000,0.0000000000,Pass,Pass
 Warmup Convergence Information,MIDFLOOR_PLENUM,RunPeriod: RUNPERIOD 1,2.1233576392E-002,2.4798106825E-002,Pass,Pass,0.0000000000,0.0000000000,Pass,Pass
 Warmup Convergence Information,PERIMETER_BOT_ZN_1,RunPeriod: RUNPERIOD 1,0.7352367329,0.8879709592,Pass,Pass,0.4808523046,0.8758716259,Pass,Pass
 Warmup Convergence Information,PERIMETER_BOT_ZN_2,RunPeriod: RUNPERIOD 1,0.9052185124,0.8954875560,Pass,Pass,0.4936898108,0.4839201100,Pass,Pass
 Warmup Convergence Information,PERIMETER_BOT_ZN_3,RunPeriod: RUNPERIOD 1,0.9406482682,0.9458342413,Pass,Pass,0.4947660299,0.4795319080,Pass,Pass
 Warmup Convergence Information,PERIMETER_BOT_ZN_4,RunPeriod: RUNPERIOD 1,0.9695384188,0.9262482731,Pass,Pass,0.4916560886,0.4844504317,Pass,Pass
 Warmup Convergence Information,PERIMETER_MID_ZN_1,RunPeriod: RUNPERIOD 1,1.0465119919,1.1508298184,Pass,Pass,0.5894147858,1.3227649100,Pass,Pass
 Warmup Convergence Information,PERIMETER_MID_ZN_2,RunPeriod: RUNPERIOD 1,1.2424382476,1.1333775706,Pass,Pass,0.4917823302,0.4853908017,Pass,Pass
 Warmup Convergence Information,PERIMETER_MID_ZN_3,RunPeriod: RUNPERIOD 1,1.2737881709,1.2190978280,Pass,Pass,0.4857986294,0.4845029861,Pass,Pass
 Warmup Convergence Information,PERIMETER_MID_ZN_4,RunPeriod: RUNPERIOD 1,1.3034202294,1.1650527285,Pass,Pass,0.4886160226,0.4869822227,Pass,Pass
 Warmup Convergence Information,PERIMETER_TOP_ZN_1,RunPeriod: RUNPERIOD 1,1.4506244640,1.4259736867,Pass,Pass,0.5032289883,0.4745861390,Pass,Pass
 Warmup Convergence Information,PERIMETER_TOP_ZN_2,RunPeriod: RUNPERIOD 1,1.6545743927,1.4865128204,Pass,Pass,0.5127696116,0.4728798097,Pass,Pass
 Warmup Convergence Information,PERIMETER_TOP_ZN_3,RunPeriod: RUNPERIOD 1,1.6960888750,1.5531551436,Pass,Pass,0.5120050856,0.4678900998,Pass,Pass
 Warmup Convergence Information,PERIMETER_TOP_ZN_4,RunPeriod: RUNPERIOD 1,1.7174159001,1.4991402849,Pass,Pass,0.5231180957,0.4738778207,Pass,Pass
 Warmup Convergence Information,TOPFLOOR_PLENUM,RunPeriod: RUNPERIOD 1,9.6594501541E-002,0.1194090646,Pass,Pass,0.0000000000,0.0000000000,Pass,Pass
! <Program Control Information:Threads/Parallel Sims>, Threading Supported,Maximum Number of Threads, Env Set Threads (OMP_NUM_THREADS), EP Env Set Threads (EP_OMP_NUM_THREADS), IDF Set Threads, Number of Threads Used (Interior Radiant Exchange), Number Nominal Surfaces, Number Parallel Sims
Program Control:Threads/Parallel Sims, No,1, N/A, N/A, N/A, N/A, N/A, N/A
End of Data
