Program Version,EnergyPlus, Version 9.2.0-921312fa1d, YMD=2020.12.22 17:51
! This file shows details about the branches, nodes, and other
! elements of the flow connections.
! This file is intended for use in "debugging" potential problems
! that may also be detected by the program, but may be more easily
! identified by "eye".
! This file is also intended to support software which draws a
! schematic diagram of the HVAC system.
! ===============================================================
! #Nodes,<Number of Unique Nodes>
 #Nodes,215
! <Node>,<NodeNumber>,<Node Name>,<Node Fluid Type>,<# Times Node Referenced After Definition>
 Node,1,CORE_BOTTOM DIRECT AIR INLET NODE NAME,Air,4
 Node,2,CORE_MID DIRECT AIR INLET NODE NAME,Air,4
 Node,3,CORE_TOP DIRECT AIR INLET NODE NAME,Air,4
 Node,4,PSZ_1:1_OAINLET NODE,Air,3
 Node,5,PSZ_1:2_OAINLET NODE,Air,3
 Node,6,PSZ_1:3_OAINLET NODE,Air,3
 Node,7,PSZ_1:4_OAINLET NODE,Air,3
 Node,8,PSZ_1:5_OAINLET NODE,Air,3
 Node,9,PSZ_2:1_OAINLET NODE,Air,3
 Node,10,PSZ_2:2_OAINLET NODE,Air,3
 Node,11,PSZ_2:3_OAINLET NODE,Air,3
 Node,12,PSZ_2:4_OAINLET NODE,Air,3
 Node,13,PSZ_2:5_OAINLET NODE,Air,3
 Node,14,PSZ_3:1_OAINLET NODE,Air,3
 Node,15,PSZ_3:2_OAINLET NODE,Air,3
 Node,16,PSZ_3:3_OAINLET NODE,Air,3
 Node,17,PSZ_3:4_OAINLET NODE,Air,3
 Node,18,PSZ_3:5_OAINLET NODE,Air,3
 Node,19,PERIMETER_BOT_ZN_1 DIRECT AIR INLET NODE NAME,Air,4
 Node,20,PERIMETER_BOT_ZN_2 DIRECT AIR INLET NODE NAME,Air,4
 Node,21,PERIMETER_BOT_ZN_3 DIRECT AIR INLET NODE NAME,Air,4
 Node,22,PERIMETER_BOT_ZN_4 DIRECT AIR INLET NODE NAME,Air,4
 Node,23,PERIMETER_MID_ZN_1 DIRECT AIR INLET NODE NAME,Air,4
 Node,24,PERIMETER_MID_ZN_2 DIRECT AIR INLET NODE NAME,Air,4
 Node,25,PERIMETER_MID_ZN_3 DIRECT AIR INLET NODE NAME,Air,4
 Node,26,PERIMETER_MID_ZN_4 DIRECT AIR INLET NODE NAME,Air,4
 Node,27,PERIMETER_TOP_ZN_1 DIRECT AIR INLET NODE NAME,Air,4
 Node,28,PERIMETER_TOP_ZN_2 DIRECT AIR INLET NODE NAME,Air,4
 Node,29,PERIMETER_TOP_ZN_3 DIRECT AIR INLET NODE NAME,Air,4
 Node,30,PERIMETER_TOP_ZN_4 DIRECT AIR INLET NODE NAME,Air,4
 Node,31,PSZ_1:1 SUPPLY EQUIPMENT INLET NODE,Air,3
 Node,32,PSZ_1:1_OA-PSZ_1:1_COOLCNODE,Air,6
 Node,33,PSZ_1:1_COOLC-PSZ_1:1_HEATCNODE,Air,6
 Node,34,PSZ_1:1_HEATC-PSZ_1:1_FANNODE,Air,8
 Node,35,PSZ_1:1 SUPPLY EQUIPMENT OUTLET NODE,Air,9
 Node,36,PSZ_1:2 SUPPLY EQUIPMENT INLET NODE,Air,3
 Node,37,PSZ_1:2_OA-PSZ_1:2_COOLCNODE,Air,6
 Node,38,PSZ_1:2_COOLC-PSZ_1:2_HEATCNODE,Air,6
 Node,39,PSZ_1:2_HEATC-PSZ_1:2_FANNODE,Air,8
 Node,40,PSZ_1:2 SUPPLY EQUIPMENT OUTLET NODE,Air,9
 Node,41,PSZ_1:3 SUPPLY EQUIPMENT INLET NODE,Air,3
 Node,42,PSZ_1:3_OA-PSZ_1:3_COOLCNODE,Air,6
 Node,43,PSZ_1:3_COOLC-PSZ_1:3_HEATCNODE,Air,6
 Node,44,PSZ_1:3_HEATC-PSZ_1:3_FANNODE,Air,8
 Node,45,PSZ_1:3 SUPPLY EQUIPMENT OUTLET NODE,Air,9
 Node,46,PSZ_1:4 SUPPLY EQUIPMENT INLET NODE,Air,3
 Node,47,PSZ_1:4_OA-PSZ_1:4_COOLCNODE,Air,6
 Node,48,PSZ_1:4_COOLC-PSZ_1:4_HEATCNODE,Air,6
 Node,49,PSZ_1:4_HEATC-PSZ_1:4_FANNODE,Air,8
 Node,50,PSZ_1:4 SUPPLY EQUIPMENT OUTLET NODE,Air,9
 Node,51,PSZ_1:5 SUPPLY EQUIPMENT INLET NODE,Air,3
 Node,52,PSZ_1:5_OA-PSZ_1:5_COOLCNODE,Air,6
 Node,53,PSZ_1:5_COOLC-PSZ_1:5_HEATCNODE,Air,6
 Node,54,PSZ_1:5_HEATC-PSZ_1:5_FANNODE,Air,8
 Node,55,PSZ_1:5 SUPPLY EQUIPMENT OUTLET NODE,Air,9
 Node,56,PSZ_2:1 SUPPLY EQUIPMENT INLET NODE,Air,3
 Node,57,PSZ_2:1_OA-PSZ_2:1_COOLCNODE,Air,6
 Node,58,PSZ_2:1_COOLC-PSZ_2:1_HEATCNODE,Air,6
 Node,59,PSZ_2:1_HEATC-PSZ_2:1_FANNODE,Air,8
 Node,60,PSZ_2:1 SUPPLY EQUIPMENT OUTLET NODE,Air,9
 Node,61,PSZ_2:2 SUPPLY EQUIPMENT INLET NODE,Air,3
 Node,62,PSZ_2:2_OA-PSZ_2:2_COOLCNODE,Air,6
 Node,63,PSZ_2:2_COOLC-PSZ_2:2_HEATCNODE,Air,6
 Node,64,PSZ_2:2_HEATC-PSZ_2:2_FANNODE,Air,8
 Node,65,PSZ_2:2 SUPPLY EQUIPMENT OUTLET NODE,Air,9
 Node,66,PSZ_2:3 SUPPLY EQUIPMENT INLET NODE,Air,3
 Node,67,PSZ_2:3_OA-PSZ_2:3_COOLCNODE,Air,6
 Node,68,PSZ_2:3_COOLC-PSZ_2:3_HEATCNODE,Air,6
 Node,69,PSZ_2:3_HEATC-PSZ_2:3_FANNODE,Air,8
 Node,70,PSZ_2:3 SUPPLY EQUIPMENT OUTLET NODE,Air,9
 Node,71,PSZ_2:4 SUPPLY EQUIPMENT INLET NODE,Air,3
 Node,72,PSZ_2:4_OA-PSZ_2:4_COOLCNODE,Air,6
 Node,73,PSZ_2:4_COOLC-PSZ_2:4_HEATCNODE,Air,6
 Node,74,PSZ_2:4_HEATC-PSZ_2:4_FANNODE,Air,8
 Node,75,PSZ_2:4 SUPPLY EQUIPMENT OUTLET NODE,Air,9
 Node,76,PSZ_2:5 SUPPLY EQUIPMENT INLET NODE,Air,3
 Node,77,PSZ_2:5_OA-PSZ_2:5_COOLCNODE,Air,6
 Node,78,PSZ_2:5_COOLC-PSZ_2:5_HEATCNODE,Air,6
 Node,79,PSZ_2:5_HEATC-PSZ_2:5_FANNODE,Air,8
 Node,80,PSZ_2:5 SUPPLY EQUIPMENT OUTLET NODE,Air,9
 Node,81,PSZ_3:1 SUPPLY EQUIPMENT INLET NODE,Air,3
 Node,82,PSZ_3:1_OA-PSZ_3:1_COOLCNODE,Air,6
 Node,83,PSZ_3:1_COOLC-PSZ_3:1_HEATCNODE,Air,6
 Node,84,PSZ_3:1_HEATC-PSZ_3:1_FANNODE,Air,8
 Node,85,PSZ_3:1 SUPPLY EQUIPMENT OUTLET NODE,Air,9
 Node,86,PSZ_3:2 SUPPLY EQUIPMENT INLET NODE,Air,3
 Node,87,PSZ_3:2_OA-PSZ_3:2_COOLCNODE,Air,6
 Node,88,PSZ_3:2_COOLC-PSZ_3:2_HEATCNODE,Air,6
 Node,89,PSZ_3:2_HEATC-PSZ_3:2_FANNODE,Air,8
 Node,90,PSZ_3:2 SUPPLY EQUIPMENT OUTLET NODE,Air,9
 Node,91,PSZ_3:3 SUPPLY EQUIPMENT INLET NODE,Air,3
 Node,92,PSZ_3:3_OA-PSZ_3:3_COOLCNODE,Air,6
 Node,93,PSZ_3:3_COOLC-PSZ_3:3_HEATCNODE,Air,6
 Node,94,PSZ_3:3_HEATC-PSZ_3:3_FANNODE,Air,8
 Node,95,PSZ_3:3 SUPPLY EQUIPMENT OUTLET NODE,Air,9
 Node,96,PSZ_3:4 SUPPLY EQUIPMENT INLET NODE,Air,3
 Node,97,PSZ_3:4_OA-PSZ_3:4_COOLCNODE,Air,6
 Node,98,PSZ_3:4_COOLC-PSZ_3:4_HEATCNODE,Air,6
 Node,99,PSZ_3:4_HEATC-PSZ_3:4_FANNODE,Air,8
 Node,100,PSZ_3:4 SUPPLY EQUIPMENT OUTLET NODE,Air,9
 Node,101,PSZ_3:5 SUPPLY EQUIPMENT INLET NODE,Air,3
 Node,102,PSZ_3:5_OA-PSZ_3:5_COOLCNODE,Air,6
 Node,103,PSZ_3:5_COOLC-PSZ_3:5_HEATCNODE,Air,6
 Node,104,PSZ_3:5_HEATC-PSZ_3:5_FANNODE,Air,8
 Node,105,PSZ_3:5 SUPPLY EQUIPMENT OUTLET NODE,Air,9
 Node,106,SWHSYS1 DEMAND BYPASS PIPE INLET NODE,Water,1
 Node,107,SWHSYS1 DEMAND BYPASS PIPE OUTLET NODE,Water,1
 Node,108,SWHSYS1 DEMAND INLET NODE,Water,2
 Node,109,SWHSYS1 DEMAND INLET PIPE-SWHSYS1 DEMAND MIXER,Water,1
 Node,110,CORE_BOTTOM WATER EQUIPMENT WATER INLET NODE,Water,1
 Node,111,CORE_BOTTOM WATER EQUIPMENT WATER OUTLET NODE,Water,1
 Node,112,CORE_MID WATER EQUIPMENT WATER INLET NODE,Water,1
 Node,113,CORE_MID WATER EQUIPMENT WATER OUTLET NODE,Water,1
 Node,114,CORE_TOP WATER EQUIPMENT WATER INLET NODE,Water,1
 Node,115,CORE_TOP WATER EQUIPMENT WATER OUTLET NODE,Water,1
 Node,116,SWHSYS1 DEMAND MIXER-SWHSYS1 DEMAND OUTLET PIPE,Water,1
 Node,117,SWHSYS1 DEMAND OUTLET NODE,Water,2
 Node,118,SWHSYS1 PUMP-SWHSYS1 WATER HEATERNODE,Water,1
 Node,119,SWHSYS1 SUPPLY EQUIPMENT OUTLET NODE,Water,1
 Node,120,SWHSYS1 SUPPLY EQUIP BYPASS INLET NODE,Water,1
 Node,121,SWHSYS1 SUPPLY EQUIP BYPASS OUTLET NODE,Water,1
 Node,122,SWHSYS1 SUPPLY INLET NODE,Water,2
 Node,123,SWHSYS1 PUMP-SWHSYS1 WATER HEATERNODEVIACONNECTOR,Water,1
 Node,124,SWHSYS1 SUPPLY MIXER-SWHSYS1 SUPPLY OUTLET PIPE,Water,1
 Node,125,SWHSYS1 SUPPLY OUTLET NODE,Water,4
 Node,126,CORE_BOTTOM AIR NODE,Air,1
 Node,127,CORE_BOTTOM RETURN AIR NODE NAME,Air,1
 Node,128,CORE_MID AIR NODE,Air,1
 Node,129,CORE_MID RETURN AIR NODE NAME,Air,1
 Node,130,CORE_TOP AIR NODE,Air,1
 Node,131,CORE_TOP RETURN AIR NODE NAME,Air,1
 Node,132,PERIMETER_BOT_ZN_1 AIR NODE,Air,1
 Node,133,PERIMETER_BOT_ZN_1 RETURN AIR NODE NAME,Air,1
 Node,134,PERIMETER_BOT_ZN_2 AIR NODE,Air,1
 Node,135,PERIMETER_BOT_ZN_2 RETURN AIR NODE NAME,Air,1
 Node,136,PERIMETER_BOT_ZN_3 AIR NODE,Air,1
 Node,137,PERIMETER_BOT_ZN_3 RETURN AIR NODE NAME,Air,1
 Node,138,PERIMETER_BOT_ZN_4 AIR NODE,Air,1
 Node,139,PERIMETER_BOT_ZN_4 RETURN AIR NODE NAME,Air,1
 Node,140,PERIMETER_MID_ZN_1 AIR NODE,Air,1
 Node,141,PERIMETER_MID_ZN_1 RETURN AIR NODE NAME,Air,1
 Node,142,PERIMETER_MID_ZN_2 AIR NODE,Air,1
 Node,143,PERIMETER_MID_ZN_2 RETURN AIR NODE NAME,Air,1
 Node,144,PERIMETER_MID_ZN_3 AIR NODE,Air,1
 Node,145,PERIMETER_MID_ZN_3 RETURN AIR NODE NAME,Air,1
 Node,146,PERIMETER_MID_ZN_4 AIR NODE,Air,1
 Node,147,PERIMETER_MID_ZN_4 RETURN AIR NODE NAME,Air,1
 Node,148,PERIMETER_TOP_ZN_1 AIR NODE,Air,1
 Node,149,PERIMETER_TOP_ZN_1 RETURN AIR NODE NAME,Air,1
 Node,150,PERIMETER_TOP_ZN_2 AIR NODE,Air,1
 Node,151,PERIMETER_TOP_ZN_2 RETURN AIR NODE NAME,Air,1
 Node,152,PERIMETER_TOP_ZN_3 AIR NODE,Air,1
 Node,153,PERIMETER_TOP_ZN_3 RETURN AIR NODE NAME,Air,1
 Node,154,PERIMETER_TOP_ZN_4 AIR NODE,Air,1
 Node,155,PERIMETER_TOP_ZN_4 RETURN AIR NODE NAME,Air,1
 Node,156,PSZ_1:1 ZONE EQUIPMENT INLET NODE,Air,2
 Node,157,PSZ_1:2 ZONE EQUIPMENT INLET NODE,Air,2
 Node,158,PSZ_1:3 ZONE EQUIPMENT INLET NODE,Air,2
 Node,159,PSZ_1:4 ZONE EQUIPMENT INLET NODE,Air,2
 Node,160,PSZ_1:5 ZONE EQUIPMENT INLET NODE,Air,2
 Node,161,PSZ_2:1 ZONE EQUIPMENT INLET NODE,Air,2
 Node,162,PSZ_2:2 ZONE EQUIPMENT INLET NODE,Air,2
 Node,163,PSZ_2:3 ZONE EQUIPMENT INLET NODE,Air,2
 Node,164,PSZ_2:4 ZONE EQUIPMENT INLET NODE,Air,2
 Node,165,PSZ_2:5 ZONE EQUIPMENT INLET NODE,Air,2
 Node,166,PSZ_3:1 ZONE EQUIPMENT INLET NODE,Air,2
 Node,167,PSZ_3:2 ZONE EQUIPMENT INLET NODE,Air,2
 Node,168,PSZ_3:3 ZONE EQUIPMENT INLET NODE,Air,2
 Node,169,PSZ_3:4 ZONE EQUIPMENT INLET NODE,Air,2
 Node,170,PSZ_3:5 ZONE EQUIPMENT INLET NODE,Air,2
 Node,171,PSZ_1:1 ZONE EQUIPMENT OUTLET NODE,Air,2
 Node,172,PSZ_1:2 ZONE EQUIPMENT OUTLET NODE,Air,2
 Node,173,PSZ_1:3 ZONE EQUIPMENT OUTLET NODE,Air,2
 Node,174,PSZ_1:4 ZONE EQUIPMENT OUTLET NODE,Air,2
 Node,175,PSZ_1:5 ZONE EQUIPMENT OUTLET NODE,Air,2
 Node,176,PSZ_2:1 ZONE EQUIPMENT OUTLET NODE,Air,2
 Node,177,PSZ_2:2 ZONE EQUIPMENT OUTLET NODE,Air,2
 Node,178,PSZ_2:3 ZONE EQUIPMENT OUTLET NODE,Air,2
 Node,179,PSZ_2:4 ZONE EQUIPMENT OUTLET NODE,Air,2
 Node,180,PSZ_2:5 ZONE EQUIPMENT OUTLET NODE,Air,2
 Node,181,PSZ_3:1 ZONE EQUIPMENT OUTLET NODE,Air,2
 Node,182,PSZ_3:2 ZONE EQUIPMENT OUTLET NODE,Air,2
 Node,183,PSZ_3:3 ZONE EQUIPMENT OUTLET NODE,Air,2
 Node,184,PSZ_3:4 ZONE EQUIPMENT OUTLET NODE,Air,2
 Node,185,PSZ_3:5 ZONE EQUIPMENT OUTLET NODE,Air,2
 Node,186,PSZ_1:1_COOLCOA REF NODE,Air,0
 Node,187,PSZ_1:2_COOLCOA REF NODE,Air,0
 Node,188,PSZ_1:3_COOLCOA REF NODE,Air,0
 Node,189,PSZ_1:4_COOLCOA REF NODE,Air,0
 Node,190,PSZ_1:5_COOLCOA REF NODE,Air,0
 Node,191,PSZ_2:1_COOLCOA REF NODE,Air,0
 Node,192,PSZ_2:2_COOLCOA REF NODE,Air,0
 Node,193,PSZ_2:3_COOLCOA REF NODE,Air,0
 Node,194,PSZ_2:4_COOLCOA REF NODE,Air,0
 Node,195,PSZ_2:5_COOLCOA REF NODE,Air,0
 Node,196,PSZ_3:1_COOLCOA REF NODE,Air,0
 Node,197,PSZ_3:2_COOLCOA REF NODE,Air,0
 Node,198,PSZ_3:3_COOLCOA REF NODE,Air,0
 Node,199,PSZ_3:4_COOLCOA REF NODE,Air,0
 Node,200,PSZ_3:5_COOLCOA REF NODE,Air,0
 Node,201,PSZ_1:1_OARELIEF NODE,Air,1
 Node,202,PSZ_1:2_OARELIEF NODE,Air,1
 Node,203,PSZ_1:3_OARELIEF NODE,Air,1
 Node,204,PSZ_1:4_OARELIEF NODE,Air,1
 Node,205,PSZ_1:5_OARELIEF NODE,Air,1
 Node,206,PSZ_2:1_OARELIEF NODE,Air,1
 Node,207,PSZ_2:2_OARELIEF NODE,Air,1
 Node,208,PSZ_2:3_OARELIEF NODE,Air,1
 Node,209,PSZ_2:4_OARELIEF NODE,Air,1
 Node,210,PSZ_2:5_OARELIEF NODE,Air,1
 Node,211,PSZ_3:1_OARELIEF NODE,Air,1
 Node,212,PSZ_3:2_OARELIEF NODE,Air,1
 Node,213,PSZ_3:3_OARELIEF NODE,Air,1
 Node,214,PSZ_3:4_OARELIEF NODE,Air,1
 Node,215,PSZ_3:5_OARELIEF NODE,Air,1
! ===============================================================
! Suspicious nodes have 0 references.  It is normal for some nodes, however.
! Listing nodes with 0 references (culled from previous list):
! <Suspicious Node>,<NodeNumber>,<Node Name>,<Node Fluid Type>,<# Times Node Referenced After Definition>
 Suspicious Node,186,PSZ_1:1_COOLCOA REF NODE,Air,0
 Suspicious Node,187,PSZ_1:2_COOLCOA REF NODE,Air,0
 Suspicious Node,188,PSZ_1:3_COOLCOA REF NODE,Air,0
 Suspicious Node,189,PSZ_1:4_COOLCOA REF NODE,Air,0
 Suspicious Node,190,PSZ_1:5_COOLCOA REF NODE,Air,0
 Suspicious Node,191,PSZ_2:1_COOLCOA REF NODE,Air,0
 Suspicious Node,192,PSZ_2:2_COOLCOA REF NODE,Air,0
 Suspicious Node,193,PSZ_2:3_COOLCOA REF NODE,Air,0
 Suspicious Node,194,PSZ_2:4_COOLCOA REF NODE,Air,0
 Suspicious Node,195,PSZ_2:5_COOLCOA REF NODE,Air,0
 Suspicious Node,196,PSZ_3:1_COOLCOA REF NODE,Air,0
 Suspicious Node,197,PSZ_3:2_COOLCOA REF NODE,Air,0
 Suspicious Node,198,PSZ_3:3_COOLCOA REF NODE,Air,0
 Suspicious Node,199,PSZ_3:4_COOLCOA REF NODE,Air,0
 Suspicious Node,200,PSZ_3:5_COOLCOA REF NODE,Air,0
! ===============================================================
! <#Branch Lists>,<Number of Branch Lists>
 #Branch Lists,17
! <Branch List>,<Branch List Count>,<Branch List Name>,<Loop Name>,<Loop Type>,<Number of Branches>
! <Branch>,<Branch Count>,<Branch Name>,<Loop Name>,<Loop Type>,<Branch Inlet Node Name>,<Branch Outlet Node Name>
 Branch List,1,PSZ_1:1 AIR LOOP BRANCHES,PSZ_1:1,Air,1
   Branch,1,PSZ_1:1 AIR LOOP MAIN BRANCH,PSZ_1:1,Air,PSZ_1:1 SUPPLY EQUIPMENT INLET NODE,PSZ_1:1 SUPPLY EQUIPMENT OUTLET NODE
 Branch List,2,PSZ_1:2 AIR LOOP BRANCHES,PSZ_1:2,Air,1
   Branch,1,PSZ_1:2 AIR LOOP MAIN BRANCH,PSZ_1:2,Air,PSZ_1:2 SUPPLY EQUIPMENT INLET NODE,PSZ_1:2 SUPPLY EQUIPMENT OUTLET NODE
 Branch List,3,PSZ_1:3 AIR LOOP BRANCHES,PSZ_1:3,Air,1
   Branch,1,PSZ_1:3 AIR LOOP MAIN BRANCH,PSZ_1:3,Air,PSZ_1:3 SUPPLY EQUIPMENT INLET NODE,PSZ_1:3 SUPPLY EQUIPMENT OUTLET NODE
 Branch List,4,PSZ_1:4 AIR LOOP BRANCHES,PSZ_1:4,Air,1
   Branch,1,PSZ_1:4 AIR LOOP MAIN BRANCH,PSZ_1:4,Air,PSZ_1:4 SUPPLY EQUIPMENT INLET NODE,PSZ_1:4 SUPPLY EQUIPMENT OUTLET NODE
 Branch List,5,PSZ_1:5 AIR LOOP BRANCHES,PSZ_1:5,Air,1
   Branch,1,PSZ_1:5 AIR LOOP MAIN BRANCH,PSZ_1:5,Air,PSZ_1:5 SUPPLY EQUIPMENT INLET NODE,PSZ_1:5 SUPPLY EQUIPMENT OUTLET NODE
 Branch List,6,PSZ_2:1 AIR LOOP BRANCHES,PSZ_2:1,Air,1
   Branch,1,PSZ_2:1 AIR LOOP MAIN BRANCH,PSZ_2:1,Air,PSZ_2:1 SUPPLY EQUIPMENT INLET NODE,PSZ_2:1 SUPPLY EQUIPMENT OUTLET NODE
 Branch List,7,PSZ_2:2 AIR LOOP BRANCHES,PSZ_2:2,Air,1
   Branch,1,PSZ_2:2 AIR LOOP MAIN BRANCH,PSZ_2:2,Air,PSZ_2:2 SUPPLY EQUIPMENT INLET NODE,PSZ_2:2 SUPPLY EQUIPMENT OUTLET NODE
 Branch List,8,PSZ_2:3 AIR LOOP BRANCHES,PSZ_2:3,Air,1
   Branch,1,PSZ_2:3 AIR LOOP MAIN BRANCH,PSZ_2:3,Air,PSZ_2:3 SUPPLY EQUIPMENT INLET NODE,PSZ_2:3 SUPPLY EQUIPMENT OUTLET NODE
 Branch List,9,PSZ_2:4 AIR LOOP BRANCHES,PSZ_2:4,Air,1
   Branch,1,PSZ_2:4 AIR LOOP MAIN BRANCH,PSZ_2:4,Air,PSZ_2:4 SUPPLY EQUIPMENT INLET NODE,PSZ_2:4 SUPPLY EQUIPMENT OUTLET NODE
 Branch List,10,PSZ_2:5 AIR LOOP BRANCHES,PSZ_2:5,Air,1
   Branch,1,PSZ_2:5 AIR LOOP MAIN BRANCH,PSZ_2:5,Air,PSZ_2:5 SUPPLY EQUIPMENT INLET NODE,PSZ_2:5 SUPPLY EQUIPMENT OUTLET NODE
 Branch List,11,PSZ_3:1 AIR LOOP BRANCHES,PSZ_3:1,Air,1
   Branch,1,PSZ_3:1 AIR LOOP MAIN BRANCH,PSZ_3:1,Air,PSZ_3:1 SUPPLY EQUIPMENT INLET NODE,PSZ_3:1 SUPPLY EQUIPMENT OUTLET NODE
 Branch List,12,PSZ_3:2 AIR LOOP BRANCHES,PSZ_3:2,Air,1
   Branch,1,PSZ_3:2 AIR LOOP MAIN BRANCH,PSZ_3:2,Air,PSZ_3:2 SUPPLY EQUIPMENT INLET NODE,PSZ_3:2 SUPPLY EQUIPMENT OUTLET NODE
 Branch List,13,PSZ_3:3 AIR LOOP BRANCHES,PSZ_3:3,Air,1
   Branch,1,PSZ_3:3 AIR LOOP MAIN BRANCH,PSZ_3:3,Air,PSZ_3:3 SUPPLY EQUIPMENT INLET NODE,PSZ_3:3 SUPPLY EQUIPMENT OUTLET NODE
 Branch List,14,PSZ_3:4 AIR LOOP BRANCHES,PSZ_3:4,Air,1
   Branch,1,PSZ_3:4 AIR LOOP MAIN BRANCH,PSZ_3:4,Air,PSZ_3:4 SUPPLY EQUIPMENT INLET NODE,PSZ_3:4 SUPPLY EQUIPMENT OUTLET NODE
 Branch List,15,PSZ_3:5 AIR LOOP BRANCHES,PSZ_3:5,Air,1
   Branch,1,PSZ_3:5 AIR LOOP MAIN BRANCH,PSZ_3:5,Air,PSZ_3:5 SUPPLY EQUIPMENT INLET NODE,PSZ_3:5 SUPPLY EQUIPMENT OUTLET NODE
 Branch List,16,SWHSYS1 DEMAND BRANCHES,SWHSYS1,Plant Demand,6
   Branch,1,SWHSYS1 DEMAND INLET BRANCH,SWHSYS1,Plant Demand,SWHSYS1 DEMAND INLET NODE,SWHSYS1 DEMAND INLET PIPE-SWHSYS1 DEMAND MIXER
   Branch,2,SWHSYS1 DEMAND LOAD BRANCH 1,SWHSYS1,Plant Demand,CORE_BOTTOM WATER EQUIPMENT WATER INLET NODE,CORE_BOTTOM WATER EQUIPMENT WATER OUTLET NODE
   Branch,3,SWHSYS1 DEMAND LOAD BRANCH 2,SWHSYS1,Plant Demand,CORE_MID WATER EQUIPMENT WATER INLET NODE,CORE_MID WATER EQUIPMENT WATER OUTLET NODE
   Branch,4,SWHSYS1 DEMAND LOAD BRANCH 3,SWHSYS1,Plant Demand,CORE_TOP WATER EQUIPMENT WATER INLET NODE,CORE_TOP WATER EQUIPMENT WATER OUTLET NODE
   Branch,5,SWHSYS1 DEMAND BYPASS BRANCH,SWHSYS1,Plant Demand,SWHSYS1 DEMAND BYPASS PIPE INLET NODE,SWHSYS1 DEMAND BYPASS PIPE OUTLET NODE
   Branch,6,SWHSYS1 DEMAND OUTLET BRANCH,SWHSYS1,Plant Demand,SWHSYS1 DEMAND MIXER-SWHSYS1 DEMAND OUTLET PIPE,SWHSYS1 DEMAND OUTLET NODE
 Branch List,17,SWHSYS1 SUPPLY BRANCHES,SWHSYS1,Plant Supply,4
   Branch,1,SWHSYS1 SUPPLY INLET BRANCH,SWHSYS1,Plant Supply,SWHSYS1 SUPPLY INLET NODE,SWHSYS1 PUMP-SWHSYS1 WATER HEATERNODEVIACONNECTOR
   Branch,2,SWHSYS1 SUPPLY EQUIPMENT BRANCH,SWHSYS1,Plant Supply,SWHSYS1 PUMP-SWHSYS1 WATER HEATERNODE,SWHSYS1 SUPPLY EQUIPMENT OUTLET NODE
   Branch,3,SWHSYS1 SUPPLY EQUIPMENT BYPASS BRANCH,SWHSYS1,Plant Supply,SWHSYS1 SUPPLY EQUIP BYPASS INLET NODE,SWHSYS1 SUPPLY EQUIP BYPASS OUTLET NODE
   Branch,4,SWHSYS1 SUPPLY OUTLET BRANCH,SWHSYS1,Plant Supply,SWHSYS1 SUPPLY MIXER-SWHSYS1 SUPPLY OUTLET PIPE,SWHSYS1 SUPPLY OUTLET NODE
! ===============================================================
! <#Supply Air Paths>,<Number of Supply Air Paths>
 #Supply Air Paths,15
! <Supply Air Path>,<Supply Air Path Count>,<Supply Air Path Name>,<AirLoopHVAC Name>
! <#Components on Supply Air Path>,<Number of Components>
! <Supply Air Path Component>,<Component Count>,<Component Type>,<Component Name>,<AirLoopHVAC Name>
! <#Outlet Nodes on Supply Air Path Component>,<Number of Nodes>
! <Supply Air Path Component Nodes>,<Node Count>,<Component Type>,<Component Name>,<Inlet Node Name>,<Outlet Node Name>,<AirLoopHVAC Name>
 Supply Air Path,1,PSZ_1:1,PSZ_1:1
   #Components on Supply Air Path,1
   Supply Air Path Component,1,AIRLOOPHVAC:ZONESPLITTER,PSZ_1:1 SUPPLY AIR SPLITTER,PSZ_1:1
     #Outlet Nodes on Supply Air Path Component,1
     Supply Air Path Component Nodes,1,AIRLOOPHVAC:ZONESPLITTER,PSZ_1:1 SUPPLY AIR SPLITTER,PSZ_1:1 ZONE EQUIPMENT INLET NODE,CORE_BOTTOM DIRECT AIR INLET NODE NAME,PSZ_1:1
! <#Nodes on Supply Air Path>,<Number of Nodes>
! <Supply Air Path Node>,<Node Type>,<Node Count>,<Node Name>,<AirLoopHVAC Name>
#Nodes on Supply Air Path,2
   Supply Air Path Node,Inlet Node,1,PSZ_1:1 ZONE EQUIPMENT INLET NODE,PSZ_1:1
   Supply Air Path Node,Outlet Node,2,CORE_BOTTOM DIRECT AIR INLET NODE NAME,PSZ_1:1
 Supply Air Path,2,PSZ_1:2,PSZ_1:2
   #Components on Supply Air Path,1
   Supply Air Path Component,1,AIRLOOPHVAC:ZONESPLITTER,PSZ_1:2 SUPPLY AIR SPLITTER,PSZ_1:2
     #Outlet Nodes on Supply Air Path Component,1
     Supply Air Path Component Nodes,1,AIRLOOPHVAC:ZONESPLITTER,PSZ_1:2 SUPPLY AIR SPLITTER,PSZ_1:2 ZONE EQUIPMENT INLET NODE,PERIMETER_BOT_ZN_1 DIRECT AIR INLET NODE NAME,PSZ_1:2
! <#Nodes on Supply Air Path>,<Number of Nodes>
! <Supply Air Path Node>,<Node Type>,<Node Count>,<Node Name>,<AirLoopHVAC Name>
#Nodes on Supply Air Path,2
   Supply Air Path Node,Inlet Node,1,PSZ_1:2 ZONE EQUIPMENT INLET NODE,PSZ_1:2
   Supply Air Path Node,Outlet Node,2,PERIMETER_BOT_ZN_1 DIRECT AIR INLET NODE NAME,PSZ_1:2
 Supply Air Path,3,PSZ_1:3,PSZ_1:3
   #Components on Supply Air Path,1
   Supply Air Path Component,1,AIRLOOPHVAC:ZONESPLITTER,PSZ_1:3 SUPPLY AIR SPLITTER,PSZ_1:3
     #Outlet Nodes on Supply Air Path Component,1
     Supply Air Path Component Nodes,1,AIRLOOPHVAC:ZONESPLITTER,PSZ_1:3 SUPPLY AIR SPLITTER,PSZ_1:3 ZONE EQUIPMENT INLET NODE,PERIMETER_BOT_ZN_2 DIRECT AIR INLET NODE NAME,PSZ_1:3
! <#Nodes on Supply Air Path>,<Number of Nodes>
! <Supply Air Path Node>,<Node Type>,<Node Count>,<Node Name>,<AirLoopHVAC Name>
#Nodes on Supply Air Path,2
   Supply Air Path Node,Inlet Node,1,PSZ_1:3 ZONE EQUIPMENT INLET NODE,PSZ_1:3
   Supply Air Path Node,Outlet Node,2,PERIMETER_BOT_ZN_2 DIRECT AIR INLET NODE NAME,PSZ_1:3
 Supply Air Path,4,PSZ_1:4,PSZ_1:4
   #Components on Supply Air Path,1
   Supply Air Path Component,1,AIRLOOPHVAC:ZONESPLITTER,PSZ_1:4 SUPPLY AIR SPLITTER,PSZ_1:4
     #Outlet Nodes on Supply Air Path Component,1
     Supply Air Path Component Nodes,1,AIRLOOPHVAC:ZONESPLITTER,PSZ_1:4 SUPPLY AIR SPLITTER,PSZ_1:4 ZONE EQUIPMENT INLET NODE,PERIMETER_BOT_ZN_3 DIRECT AIR INLET NODE NAME,PSZ_1:4
! <#Nodes on Supply Air Path>,<Number of Nodes>
! <Supply Air Path Node>,<Node Type>,<Node Count>,<Node Name>,<AirLoopHVAC Name>
#Nodes on Supply Air Path,2
   Supply Air Path Node,Inlet Node,1,PSZ_1:4 ZONE EQUIPMENT INLET NODE,PSZ_1:4
   Supply Air Path Node,Outlet Node,2,PERIMETER_BOT_ZN_3 DIRECT AIR INLET NODE NAME,PSZ_1:4
 Supply Air Path,5,PSZ_1:5,PSZ_1:5
   #Components on Supply Air Path,1
   Supply Air Path Component,1,AIRLOOPHVAC:ZONESPLITTER,PSZ_1:5 SUPPLY AIR SPLITTER,PSZ_1:5
     #Outlet Nodes on Supply Air Path Component,1
     Supply Air Path Component Nodes,1,AIRLOOPHVAC:ZONESPLITTER,PSZ_1:5 SUPPLY AIR SPLITTER,PSZ_1:5 ZONE EQUIPMENT INLET NODE,PERIMETER_BOT_ZN_4 DIRECT AIR INLET NODE NAME,PSZ_1:5
! <#Nodes on Supply Air Path>,<Number of Nodes>
! <Supply Air Path Node>,<Node Type>,<Node Count>,<Node Name>,<AirLoopHVAC Name>
#Nodes on Supply Air Path,2
   Supply Air Path Node,Inlet Node,1,PSZ_1:5 ZONE EQUIPMENT INLET NODE,PSZ_1:5
   Supply Air Path Node,Outlet Node,2,PERIMETER_BOT_ZN_4 DIRECT AIR INLET NODE NAME,PSZ_1:5
 Supply Air Path,6,PSZ_2:1,PSZ_2:1
   #Components on Supply Air Path,1
   Supply Air Path Component,1,AIRLOOPHVAC:ZONESPLITTER,PSZ_2:1 SUPPLY AIR SPLITTER,PSZ_2:1
     #Outlet Nodes on Supply Air Path Component,1
     Supply Air Path Component Nodes,1,AIRLOOPHVAC:ZONESPLITTER,PSZ_2:1 SUPPLY AIR SPLITTER,PSZ_2:1 ZONE EQUIPMENT INLET NODE,CORE_MID DIRECT AIR INLET NODE NAME,PSZ_2:1
! <#Nodes on Supply Air Path>,<Number of Nodes>
! <Supply Air Path Node>,<Node Type>,<Node Count>,<Node Name>,<AirLoopHVAC Name>
#Nodes on Supply Air Path,2
   Supply Air Path Node,Inlet Node,1,PSZ_2:1 ZONE EQUIPMENT INLET NODE,PSZ_2:1
   Supply Air Path Node,Outlet Node,2,CORE_MID DIRECT AIR INLET NODE NAME,PSZ_2:1
 Supply Air Path,7,PSZ_2:2,PSZ_2:2
   #Components on Supply Air Path,1
   Supply Air Path Component,1,AIRLOOPHVAC:ZONESPLITTER,PSZ_2:2 SUPPLY AIR SPLITTER,PSZ_2:2
     #Outlet Nodes on Supply Air Path Component,1
     Supply Air Path Component Nodes,1,AIRLOOPHVAC:ZONESPLITTER,PSZ_2:2 SUPPLY AIR SPLITTER,PSZ_2:2 ZONE EQUIPMENT INLET NODE,PERIMETER_MID_ZN_1 DIRECT AIR INLET NODE NAME,PSZ_2:2
! <#Nodes on Supply Air Path>,<Number of Nodes>
! <Supply Air Path Node>,<Node Type>,<Node Count>,<Node Name>,<AirLoopHVAC Name>
#Nodes on Supply Air Path,2
   Supply Air Path Node,Inlet Node,1,PSZ_2:2 ZONE EQUIPMENT INLET NODE,PSZ_2:2
   Supply Air Path Node,Outlet Node,2,PERIMETER_MID_ZN_1 DIRECT AIR INLET NODE NAME,PSZ_2:2
 Supply Air Path,8,PSZ_2:3,PSZ_2:3
   #Components on Supply Air Path,1
   Supply Air Path Component,1,AIRLOOPHVAC:ZONESPLITTER,PSZ_2:3 SUPPLY AIR SPLITTER,PSZ_2:3
     #Outlet Nodes on Supply Air Path Component,1
     Supply Air Path Component Nodes,1,AIRLOOPHVAC:ZONESPLITTER,PSZ_2:3 SUPPLY AIR SPLITTER,PSZ_2:3 ZONE EQUIPMENT INLET NODE,PERIMETER_MID_ZN_2 DIRECT AIR INLET NODE NAME,PSZ_2:3
! <#Nodes on Supply Air Path>,<Number of Nodes>
! <Supply Air Path Node>,<Node Type>,<Node Count>,<Node Name>,<AirLoopHVAC Name>
#Nodes on Supply Air Path,2
   Supply Air Path Node,Inlet Node,1,PSZ_2:3 ZONE EQUIPMENT INLET NODE,PSZ_2:3
   Supply Air Path Node,Outlet Node,2,PERIMETER_MID_ZN_2 DIRECT AIR INLET NODE NAME,PSZ_2:3
 Supply Air Path,9,PSZ_2:4,PSZ_2:4
   #Components on Supply Air Path,1
   Supply Air Path Component,1,AIRLOOPHVAC:ZONESPLITTER,PSZ_2:4 SUPPLY AIR SPLITTER,PSZ_2:4
     #Outlet Nodes on Supply Air Path Component,1
     Supply Air Path Component Nodes,1,AIRLOOPHVAC:ZONESPLITTER,PSZ_2:4 SUPPLY AIR SPLITTER,PSZ_2:4 ZONE EQUIPMENT INLET NODE,PERIMETER_MID_ZN_3 DIRECT AIR INLET NODE NAME,PSZ_2:4
! <#Nodes on Supply Air Path>,<Number of Nodes>
! <Supply Air Path Node>,<Node Type>,<Node Count>,<Node Name>,<AirLoopHVAC Name>
#Nodes on Supply Air Path,2
   Supply Air Path Node,Inlet Node,1,PSZ_2:4 ZONE EQUIPMENT INLET NODE,PSZ_2:4
   Supply Air Path Node,Outlet Node,2,PERIMETER_MID_ZN_3 DIRECT AIR INLET NODE NAME,PSZ_2:4
 Supply Air Path,10,PSZ_2:5,PSZ_2:5
   #Components on Supply Air Path,1
   Supply Air Path Component,1,AIRLOOPHVAC:ZONESPLITTER,PSZ_2:5 SUPPLY AIR SPLITTER,PSZ_2:5
     #Outlet Nodes on Supply Air Path Component,1
     Supply Air Path Component Nodes,1,AIRLOOPHVAC:ZONESPLITTER,PSZ_2:5 SUPPLY AIR SPLITTER,PSZ_2:5 ZONE EQUIPMENT INLET NODE,PERIMETER_MID_ZN_4 DIRECT AIR INLET NODE NAME,PSZ_2:5
! <#Nodes on Supply Air Path>,<Number of Nodes>
! <Supply Air Path Node>,<Node Type>,<Node Count>,<Node Name>,<AirLoopHVAC Name>
#Nodes on Supply Air Path,2
   Supply Air Path Node,Inlet Node,1,PSZ_2:5 ZONE EQUIPMENT INLET NODE,PSZ_2:5
   Supply Air Path Node,Outlet Node,2,PERIMETER_MID_ZN_4 DIRECT AIR INLET NODE NAME,PSZ_2:5
 Supply Air Path,11,PSZ_3:1,PSZ_3:1
   #Components on Supply Air Path,1
   Supply Air Path Component,1,AIRLOOPHVAC:ZONESPLITTER,PSZ_3:1 SUPPLY AIR SPLITTER,PSZ_3:1
     #Outlet Nodes on Supply Air Path Component,1
     Supply Air Path Component Nodes,1,AIRLOOPHVAC:ZONESPLITTER,PSZ_3:1 SUPPLY AIR SPLITTER,PSZ_3:1 ZONE EQUIPMENT INLET NODE,CORE_TOP DIRECT AIR INLET NODE NAME,PSZ_3:1
! <#Nodes on Supply Air Path>,<Number of Nodes>
! <Supply Air Path Node>,<Node Type>,<Node Count>,<Node Name>,<AirLoopHVAC Name>
#Nodes on Supply Air Path,2
   Supply Air Path Node,Inlet Node,1,PSZ_3:1 ZONE EQUIPMENT INLET NODE,PSZ_3:1
   Supply Air Path Node,Outlet Node,2,CORE_TOP DIRECT AIR INLET NODE NAME,PSZ_3:1
 Supply Air Path,12,PSZ_3:2,PSZ_3:2
   #Components on Supply Air Path,1
   Supply Air Path Component,1,AIRLOOPHVAC:ZONESPLITTER,PSZ_3:2 SUPPLY AIR SPLITTER,PSZ_3:2
     #Outlet Nodes on Supply Air Path Component,1
     Supply Air Path Component Nodes,1,AIRLOOPHVAC:ZONESPLITTER,PSZ_3:2 SUPPLY AIR SPLITTER,PSZ_3:2 ZONE EQUIPMENT INLET NODE,PERIMETER_TOP_ZN_1 DIRECT AIR INLET NODE NAME,PSZ_3:2
! <#Nodes on Supply Air Path>,<Number of Nodes>
! <Supply Air Path Node>,<Node Type>,<Node Count>,<Node Name>,<AirLoopHVAC Name>
#Nodes on Supply Air Path,2
   Supply Air Path Node,Inlet Node,1,PSZ_3:2 ZONE EQUIPMENT INLET NODE,PSZ_3:2
   Supply Air Path Node,Outlet Node,2,PERIMETER_TOP_ZN_1 DIRECT AIR INLET NODE NAME,PSZ_3:2
 Supply Air Path,13,PSZ_3:3,PSZ_3:3
   #Components on Supply Air Path,1
   Supply Air Path Component,1,AIRLOOPHVAC:ZONESPLITTER,PSZ_3:3 SUPPLY AIR SPLITTER,PSZ_3:3
     #Outlet Nodes on Supply Air Path Component,1
     Supply Air Path Component Nodes,1,AIRLOOPHVAC:ZONESPLITTER,PSZ_3:3 SUPPLY AIR SPLITTER,PSZ_3:3 ZONE EQUIPMENT INLET NODE,PERIMETER_TOP_ZN_2 DIRECT AIR INLET NODE NAME,PSZ_3:3
! <#Nodes on Supply Air Path>,<Number of Nodes>
! <Supply Air Path Node>,<Node Type>,<Node Count>,<Node Name>,<AirLoopHVAC Name>
#Nodes on Supply Air Path,2
   Supply Air Path Node,Inlet Node,1,PSZ_3:3 ZONE EQUIPMENT INLET NODE,PSZ_3:3
   Supply Air Path Node,Outlet Node,2,PERIMETER_TOP_ZN_2 DIRECT AIR INLET NODE NAME,PSZ_3:3
 Supply Air Path,14,PSZ_3:4,PSZ_3:4
   #Components on Supply Air Path,1
   Supply Air Path Component,1,AIRLOOPHVAC:ZONESPLITTER,PSZ_3:4 SUPPLY AIR SPLITTER,PSZ_3:4
     #Outlet Nodes on Supply Air Path Component,1
     Supply Air Path Component Nodes,1,AIRLOOPHVAC:ZONESPLITTER,PSZ_3:4 SUPPLY AIR SPLITTER,PSZ_3:4 ZONE EQUIPMENT INLET NODE,PERIMETER_TOP_ZN_3 DIRECT AIR INLET NODE NAME,PSZ_3:4
! <#Nodes on Supply Air Path>,<Number of Nodes>
! <Supply Air Path Node>,<Node Type>,<Node Count>,<Node Name>,<AirLoopHVAC Name>
#Nodes on Supply Air Path,2
   Supply Air Path Node,Inlet Node,1,PSZ_3:4 ZONE EQUIPMENT INLET NODE,PSZ_3:4
   Supply Air Path Node,Outlet Node,2,PERIMETER_TOP_ZN_3 DIRECT AIR INLET NODE NAME,PSZ_3:4
 Supply Air Path,15,PSZ_3:5,PSZ_3:5
   #Components on Supply Air Path,1
   Supply Air Path Component,1,AIRLOOPHVAC:ZONESPLITTER,PSZ_3:5 SUPPLY AIR SPLITTER,PSZ_3:5
     #Outlet Nodes on Supply Air Path Component,1
     Supply Air Path Component Nodes,1,AIRLOOPHVAC:ZONESPLITTER,PSZ_3:5 SUPPLY AIR SPLITTER,PSZ_3:5 ZONE EQUIPMENT INLET NODE,PERIMETER_TOP_ZN_4 DIRECT AIR INLET NODE NAME,PSZ_3:5
! <#Nodes on Supply Air Path>,<Number of Nodes>
! <Supply Air Path Node>,<Node Type>,<Node Count>,<Node Name>,<AirLoopHVAC Name>
#Nodes on Supply Air Path,2
   Supply Air Path Node,Inlet Node,1,PSZ_3:5 ZONE EQUIPMENT INLET NODE,PSZ_3:5
   Supply Air Path Node,Outlet Node,2,PERIMETER_TOP_ZN_4 DIRECT AIR INLET NODE NAME,PSZ_3:5
! ===============================================================
! <#Return Air Paths>,<Number of Return Air Paths>
 #Return Air Paths,15
! <Return Air Path>,<Return Air Path Count>,<Return Air Path Name>,<AirLoopHVAC Name>
! <#Components on Return Air Path>,<Number of Components>
! <Return Air Path Component>,<Component Count>,<Component Type>,<Component Name>,<AirLoopHVAC Name>
! <#Inlet Nodes on Return Air Path Component>,<Number of Nodes>
! <Return Air Path Component Nodes>,<Node Count>,<Component Type>,<Component Name>,<Inlet Node Name>,<Outlet Node Name>,<AirLoopHVAC Name>
 Return Air Path,1,PSZ_1:1 RETURN AIR PATH,PSZ_1:1
   #Components on Return Air Path,1
   Return Air Path Component,1,AIRLOOPHVAC:ZONEMIXER,PSZ_1:1 RETURN AIR MIXER,PSZ_1:1
     #Inlet Nodes on Return Air Path Component,1
     Return Air Path Component Nodes,1,AIRLOOPHVAC:ZONEMIXER,PSZ_1:1 RETURN AIR MIXER,CORE_BOTTOM RETURN AIR NODE NAME,PSZ_1:1 ZONE EQUIPMENT OUTLET NODE,PSZ_1:1
! <#Nodes on Return Air Path>,<Number of Nodes>
! <Return Air Path Node>,<Node Type>,<Node Count>,<Node Name>,<AirLoopHVAC Name>
   #Nodes on Return Air Path,2
   Return Air Path Node,Outlet Node,1,PSZ_1:1 ZONE EQUIPMENT OUTLET NODE,PSZ_1:1
   Return Air Path Node,Inlet Node,2,CORE_BOTTOM RETURN AIR NODE NAME,PSZ_1:1
 Return Air Path,2,PSZ_1:2 RETURN AIR PATH,PSZ_1:2
   #Components on Return Air Path,1
   Return Air Path Component,1,AIRLOOPHVAC:ZONEMIXER,PSZ_1:2 RETURN AIR MIXER,PSZ_1:2
     #Inlet Nodes on Return Air Path Component,1
     Return Air Path Component Nodes,1,AIRLOOPHVAC:ZONEMIXER,PSZ_1:2 RETURN AIR MIXER,PERIMETER_BOT_ZN_1 RETURN AIR NODE NAME,PSZ_1:2 ZONE EQUIPMENT OUTLET NODE,PSZ_1:2
! <#Nodes on Return Air Path>,<Number of Nodes>
! <Return Air Path Node>,<Node Type>,<Node Count>,<Node Name>,<AirLoopHVAC Name>
   #Nodes on Return Air Path,2
   Return Air Path Node,Outlet Node,1,PSZ_1:2 ZONE EQUIPMENT OUTLET NODE,PSZ_1:2
   Return Air Path Node,Inlet Node,2,PERIMETER_BOT_ZN_1 RETURN AIR NODE NAME,PSZ_1:2
 Return Air Path,3,PSZ_1:3 RETURN AIR PATH,PSZ_1:3
   #Components on Return Air Path,1
   Return Air Path Component,1,AIRLOOPHVAC:ZONEMIXER,PSZ_1:3 RETURN AIR MIXER,PSZ_1:3
     #Inlet Nodes on Return Air Path Component,1
     Return Air Path Component Nodes,1,AIRLOOPHVAC:ZONEMIXER,PSZ_1:3 RETURN AIR MIXER,PERIMETER_BOT_ZN_2 RETURN AIR NODE NAME,PSZ_1:3 ZONE EQUIPMENT OUTLET NODE,PSZ_1:3
! <#Nodes on Return Air Path>,<Number of Nodes>
! <Return Air Path Node>,<Node Type>,<Node Count>,<Node Name>,<AirLoopHVAC Name>
   #Nodes on Return Air Path,2
   Return Air Path Node,Outlet Node,1,PSZ_1:3 ZONE EQUIPMENT OUTLET NODE,PSZ_1:3
   Return Air Path Node,Inlet Node,2,PERIMETER_BOT_ZN_2 RETURN AIR NODE NAME,PSZ_1:3
 Return Air Path,4,PSZ_1:4 RETURN AIR PATH,PSZ_1:4
   #Components on Return Air Path,1
   Return Air Path Component,1,AIRLOOPHVAC:ZONEMIXER,PSZ_1:4 RETURN AIR MIXER,PSZ_1:4
     #Inlet Nodes on Return Air Path Component,1
     Return Air Path Component Nodes,1,AIRLOOPHVAC:ZONEMIXER,PSZ_1:4 RETURN AIR MIXER,PERIMETER_BOT_ZN_3 RETURN AIR NODE NAME,PSZ_1:4 ZONE EQUIPMENT OUTLET NODE,PSZ_1:4
! <#Nodes on Return Air Path>,<Number of Nodes>
! <Return Air Path Node>,<Node Type>,<Node Count>,<Node Name>,<AirLoopHVAC Name>
   #Nodes on Return Air Path,2
   Return Air Path Node,Outlet Node,1,PSZ_1:4 ZONE EQUIPMENT OUTLET NODE,PSZ_1:4
   Return Air Path Node,Inlet Node,2,PERIMETER_BOT_ZN_3 RETURN AIR NODE NAME,PSZ_1:4
 Return Air Path,5,PSZ_1:5 RETURN AIR PATH,PSZ_1:5
   #Components on Return Air Path,1
   Return Air Path Component,1,AIRLOOPHVAC:ZONEMIXER,PSZ_1:5 RETURN AIR MIXER,PSZ_1:5
     #Inlet Nodes on Return Air Path Component,1
     Return Air Path Component Nodes,1,AIRLOOPHVAC:ZONEMIXER,PSZ_1:5 RETURN AIR MIXER,PERIMETER_BOT_ZN_4 RETURN AIR NODE NAME,PSZ_1:5 ZONE EQUIPMENT OUTLET NODE,PSZ_1:5
! <#Nodes on Return Air Path>,<Number of Nodes>
! <Return Air Path Node>,<Node Type>,<Node Count>,<Node Name>,<AirLoopHVAC Name>
   #Nodes on Return Air Path,2
   Return Air Path Node,Outlet Node,1,PSZ_1:5 ZONE EQUIPMENT OUTLET NODE,PSZ_1:5
   Return Air Path Node,Inlet Node,2,PERIMETER_BOT_ZN_4 RETURN AIR NODE NAME,PSZ_1:5
 Return Air Path,6,PSZ_2:1 RETURN AIR PATH,PSZ_2:1
   #Components on Return Air Path,1
   Return Air Path Component,1,AIRLOOPHVAC:ZONEMIXER,PSZ_2:1 RETURN AIR MIXER,PSZ_2:1
     #Inlet Nodes on Return Air Path Component,1
     Return Air Path Component Nodes,1,AIRLOOPHVAC:ZONEMIXER,PSZ_2:1 RETURN AIR MIXER,CORE_MID RETURN AIR NODE NAME,PSZ_2:1 ZONE EQUIPMENT OUTLET NODE,PSZ_2:1
! <#Nodes on Return Air Path>,<Number of Nodes>
! <Return Air Path Node>,<Node Type>,<Node Count>,<Node Name>,<AirLoopHVAC Name>
   #Nodes on Return Air Path,2
   Return Air Path Node,Outlet Node,1,PSZ_2:1 ZONE EQUIPMENT OUTLET NODE,PSZ_2:1
   Return Air Path Node,Inlet Node,2,CORE_MID RETURN AIR NODE NAME,PSZ_2:1
 Return Air Path,7,PSZ_2:2 RETURN AIR PATH,PSZ_2:2
   #Components on Return Air Path,1
   Return Air Path Component,1,AIRLOOPHVAC:ZONEMIXER,PSZ_2:2 RETURN AIR MIXER,PSZ_2:2
     #Inlet Nodes on Return Air Path Component,1
     Return Air Path Component Nodes,1,AIRLOOPHVAC:ZONEMIXER,PSZ_2:2 RETURN AIR MIXER,PERIMETER_MID_ZN_1 RETURN AIR NODE NAME,PSZ_2:2 ZONE EQUIPMENT OUTLET NODE,PSZ_2:2
! <#Nodes on Return Air Path>,<Number of Nodes>
! <Return Air Path Node>,<Node Type>,<Node Count>,<Node Name>,<AirLoopHVAC Name>
   #Nodes on Return Air Path,2
   Return Air Path Node,Outlet Node,1,PSZ_2:2 ZONE EQUIPMENT OUTLET NODE,PSZ_2:2
   Return Air Path Node,Inlet Node,2,PERIMETER_MID_ZN_1 RETURN AIR NODE NAME,PSZ_2:2
 Return Air Path,8,PSZ_2:3 RETURN AIR PATH,PSZ_2:3
   #Components on Return Air Path,1
   Return Air Path Component,1,AIRLOOPHVAC:ZONEMIXER,PSZ_2:3 RETURN AIR MIXER,PSZ_2:3
     #Inlet Nodes on Return Air Path Component,1
     Return Air Path Component Nodes,1,AIRLOOPHVAC:ZONEMIXER,PSZ_2:3 RETURN AIR MIXER,PERIMETER_MID_ZN_2 RETURN AIR NODE NAME,PSZ_2:3 ZONE EQUIPMENT OUTLET NODE,PSZ_2:3
! <#Nodes on Return Air Path>,<Number of Nodes>
! <Return Air Path Node>,<Node Type>,<Node Count>,<Node Name>,<AirLoopHVAC Name>
   #Nodes on Return Air Path,2
   Return Air Path Node,Outlet Node,1,PSZ_2:3 ZONE EQUIPMENT OUTLET NODE,PSZ_2:3
   Return Air Path Node,Inlet Node,2,PERIMETER_MID_ZN_2 RETURN AIR NODE NAME,PSZ_2:3
 Return Air Path,9,PSZ_2:4 RETURN AIR PATH,PSZ_2:4
   #Components on Return Air Path,1
   Return Air Path Component,1,AIRLOOPHVAC:ZONEMIXER,PSZ_2:4 RETURN AIR MIXER,PSZ_2:4
     #Inlet Nodes on Return Air Path Component,1
     Return Air Path Component Nodes,1,AIRLOOPHVAC:ZONEMIXER,PSZ_2:4 RETURN AIR MIXER,PERIMETER_MID_ZN_3 RETURN AIR NODE NAME,PSZ_2:4 ZONE EQUIPMENT OUTLET NODE,PSZ_2:4
! <#Nodes on Return Air Path>,<Number of Nodes>
! <Return Air Path Node>,<Node Type>,<Node Count>,<Node Name>,<AirLoopHVAC Name>
   #Nodes on Return Air Path,2
   Return Air Path Node,Outlet Node,1,PSZ_2:4 ZONE EQUIPMENT OUTLET NODE,PSZ_2:4
   Return Air Path Node,Inlet Node,2,PERIMETER_MID_ZN_3 RETURN AIR NODE NAME,PSZ_2:4
 Return Air Path,10,PSZ_2:5 RETURN AIR PATH,PSZ_2:5
   #Components on Return Air Path,1
   Return Air Path Component,1,AIRLOOPHVAC:ZONEMIXER,PSZ_2:5 RETURN AIR MIXER,PSZ_2:5
     #Inlet Nodes on Return Air Path Component,1
     Return Air Path Component Nodes,1,AIRLOOPHVAC:ZONEMIXER,PSZ_2:5 RETURN AIR MIXER,PERIMETER_MID_ZN_4 RETURN AIR NODE NAME,PSZ_2:5 ZONE EQUIPMENT OUTLET NODE,PSZ_2:5
! <#Nodes on Return Air Path>,<Number of Nodes>
! <Return Air Path Node>,<Node Type>,<Node Count>,<Node Name>,<AirLoopHVAC Name>
   #Nodes on Return Air Path,2
   Return Air Path Node,Outlet Node,1,PSZ_2:5 ZONE EQUIPMENT OUTLET NODE,PSZ_2:5
   Return Air Path Node,Inlet Node,2,PERIMETER_MID_ZN_4 RETURN AIR NODE NAME,PSZ_2:5
 Return Air Path,11,PSZ_3:1 RETURN AIR PATH,PSZ_3:1
   #Components on Return Air Path,1
   Return Air Path Component,1,AIRLOOPHVAC:ZONEMIXER,PSZ_3:1 RETURN AIR MIXER,PSZ_3:1
     #Inlet Nodes on Return Air Path Component,1
     Return Air Path Component Nodes,1,AIRLOOPHVAC:ZONEMIXER,PSZ_3:1 RETURN AIR MIXER,CORE_TOP RETURN AIR NODE NAME,PSZ_3:1 ZONE EQUIPMENT OUTLET NODE,PSZ_3:1
! <#Nodes on Return Air Path>,<Number of Nodes>
! <Return Air Path Node>,<Node Type>,<Node Count>,<Node Name>,<AirLoopHVAC Name>
   #Nodes on Return Air Path,2
   Return Air Path Node,Outlet Node,1,PSZ_3:1 ZONE EQUIPMENT OUTLET NODE,PSZ_3:1
   Return Air Path Node,Inlet Node,2,CORE_TOP RETURN AIR NODE NAME,PSZ_3:1
 Return Air Path,12,PSZ_3:2 RETURN AIR PATH,PSZ_3:2
   #Components on Return Air Path,1
   Return Air Path Component,1,AIRLOOPHVAC:ZONEMIXER,PSZ_3:2 RETURN AIR MIXER,PSZ_3:2
     #Inlet Nodes on Return Air Path Component,1
     Return Air Path Component Nodes,1,AIRLOOPHVAC:ZONEMIXER,PSZ_3:2 RETURN AIR MIXER,PERIMETER_TOP_ZN_1 RETURN AIR NODE NAME,PSZ_3:2 ZONE EQUIPMENT OUTLET NODE,PSZ_3:2
! <#Nodes on Return Air Path>,<Number of Nodes>
! <Return Air Path Node>,<Node Type>,<Node Count>,<Node Name>,<AirLoopHVAC Name>
   #Nodes on Return Air Path,2
   Return Air Path Node,Outlet Node,1,PSZ_3:2 ZONE EQUIPMENT OUTLET NODE,PSZ_3:2
   Return Air Path Node,Inlet Node,2,PERIMETER_TOP_ZN_1 RETURN AIR NODE NAME,PSZ_3:2
 Return Air Path,13,PSZ_3:3 RETURN AIR PATH,PSZ_3:3
   #Components on Return Air Path,1
   Return Air Path Component,1,AIRLOOPHVAC:ZONEMIXER,PSZ_3:3 RETURN AIR MIXER,PSZ_3:3
     #Inlet Nodes on Return Air Path Component,1
     Return Air Path Component Nodes,1,AIRLOOPHVAC:ZONEMIXER,PSZ_3:3 RETURN AIR MIXER,PERIMETER_TOP_ZN_2 RETURN AIR NODE NAME,PSZ_3:3 ZONE EQUIPMENT OUTLET NODE,PSZ_3:3
! <#Nodes on Return Air Path>,<Number of Nodes>
! <Return Air Path Node>,<Node Type>,<Node Count>,<Node Name>,<AirLoopHVAC Name>
   #Nodes on Return Air Path,2
   Return Air Path Node,Outlet Node,1,PSZ_3:3 ZONE EQUIPMENT OUTLET NODE,PSZ_3:3
   Return Air Path Node,Inlet Node,2,PERIMETER_TOP_ZN_2 RETURN AIR NODE NAME,PSZ_3:3
 Return Air Path,14,PSZ_3:4 RETURN AIR PATH,PSZ_3:4
   #Components on Return Air Path,1
   Return Air Path Component,1,AIRLOOPHVAC:ZONEMIXER,PSZ_3:4 RETURN AIR MIXER,PSZ_3:4
     #Inlet Nodes on Return Air Path Component,1
     Return Air Path Component Nodes,1,AIRLOOPHVAC:ZONEMIXER,PSZ_3:4 RETURN AIR MIXER,PERIMETER_TOP_ZN_3 RETURN AIR NODE NAME,PSZ_3:4 ZONE EQUIPMENT OUTLET NODE,PSZ_3:4
! <#Nodes on Return Air Path>,<Number of Nodes>
! <Return Air Path Node>,<Node Type>,<Node Count>,<Node Name>,<AirLoopHVAC Name>
   #Nodes on Return Air Path,2
   Return Air Path Node,Outlet Node,1,PSZ_3:4 ZONE EQUIPMENT OUTLET NODE,PSZ_3:4
   Return Air Path Node,Inlet Node,2,PERIMETER_TOP_ZN_3 RETURN AIR NODE NAME,PSZ_3:4
 Return Air Path,15,PSZ_3:5 RETURN AIR PATH,PSZ_3:5
   #Components on Return Air Path,1
   Return Air Path Component,1,AIRLOOPHVAC:ZONEMIXER,PSZ_3:5 RETURN AIR MIXER,PSZ_3:5
     #Inlet Nodes on Return Air Path Component,1
     Return Air Path Component Nodes,1,AIRLOOPHVAC:ZONEMIXER,PSZ_3:5 RETURN AIR MIXER,PERIMETER_TOP_ZN_4 RETURN AIR NODE NAME,PSZ_3:5 ZONE EQUIPMENT OUTLET NODE,PSZ_3:5
! <#Nodes on Return Air Path>,<Number of Nodes>
! <Return Air Path Node>,<Node Type>,<Node Count>,<Node Name>,<AirLoopHVAC Name>
   #Nodes on Return Air Path,2
   Return Air Path Node,Outlet Node,1,PSZ_3:5 ZONE EQUIPMENT OUTLET NODE,PSZ_3:5
   Return Air Path Node,Inlet Node,2,PERIMETER_TOP_ZN_4 RETURN AIR NODE NAME,PSZ_3:5
! ===============================================================
! #Outdoor Air Nodes,<Number of Outdoor Air Nodes>
 #Outdoor Air Nodes,30
! <Outdoor Air Node>,<NodeNumber>,<Node Name>
 Outdoor Air Node,4,PSZ_1:1_OAINLET NODE
 Outdoor Air Node,5,PSZ_1:2_OAINLET NODE
 Outdoor Air Node,6,PSZ_1:3_OAINLET NODE
 Outdoor Air Node,7,PSZ_1:4_OAINLET NODE
 Outdoor Air Node,8,PSZ_1:5_OAINLET NODE
 Outdoor Air Node,9,PSZ_2:1_OAINLET NODE
 Outdoor Air Node,10,PSZ_2:2_OAINLET NODE
 Outdoor Air Node,11,PSZ_2:3_OAINLET NODE
 Outdoor Air Node,12,PSZ_2:4_OAINLET NODE
 Outdoor Air Node,13,PSZ_2:5_OAINLET NODE
 Outdoor Air Node,14,PSZ_3:1_OAINLET NODE
 Outdoor Air Node,15,PSZ_3:2_OAINLET NODE
 Outdoor Air Node,16,PSZ_3:3_OAINLET NODE
 Outdoor Air Node,17,PSZ_3:4_OAINLET NODE
 Outdoor Air Node,18,PSZ_3:5_OAINLET NODE
 Outdoor Air Node,186,PSZ_1:1_COOLCOA REF NODE
 Outdoor Air Node,187,PSZ_1:2_COOLCOA REF NODE
 Outdoor Air Node,188,PSZ_1:3_COOLCOA REF NODE
 Outdoor Air Node,189,PSZ_1:4_COOLCOA REF NODE
 Outdoor Air Node,190,PSZ_1:5_COOLCOA REF NODE
 Outdoor Air Node,191,PSZ_2:1_COOLCOA REF NODE
 Outdoor Air Node,192,PSZ_2:2_COOLCOA REF NODE
 Outdoor Air Node,193,PSZ_2:3_COOLCOA REF NODE
 Outdoor Air Node,194,PSZ_2:4_COOLCOA REF NODE
 Outdoor Air Node,195,PSZ_2:5_COOLCOA REF NODE
 Outdoor Air Node,196,PSZ_3:1_COOLCOA REF NODE
 Outdoor Air Node,197,PSZ_3:2_COOLCOA REF NODE
 Outdoor Air Node,198,PSZ_3:3_COOLCOA REF NODE
 Outdoor Air Node,199,PSZ_3:4_COOLCOA REF NODE
 Outdoor Air Node,200,PSZ_3:5_COOLCOA REF NODE
! ===============================================================
! <#Component Sets>,<Number of Component Sets>
 #Component Sets,100
! <Component Set>,<Component Set Count>,<Parent Object Type>,<Parent Object Name>,<Component Type>,<Component Name>,<Inlet Node ID>,<Outlet Node ID>,<Description>
 Component Set,1,BRANCH,PSZ_1:1 AIR LOOP MAIN BRANCH,AIRLOOPHVAC:OUTDOORAIRSYSTEM,PSZ_1:1_OA,PSZ_1:1 SUPPLY EQUIPMENT INLET NODE,PSZ_1:1_OA-PSZ_1:1_COOLCNODE,Air Nodes
 Component Set,2,BRANCH,PSZ_1:1 AIR LOOP MAIN BRANCH,COILSYSTEM:COOLING:DX,PSZ_1:1_COOLC,PSZ_1:1_OA-PSZ_1:1_COOLCNODE,PSZ_1:1_COOLC-PSZ_1:1_HEATCNODE,Air Nodes
 Component Set,3,BRANCH,PSZ_1:1 AIR LOOP MAIN BRANCH,COIL:HEATING:FUEL,PSZ_1:1_HEATC,PSZ_1:1_COOLC-PSZ_1:1_HEATCNODE,PSZ_1:1_HEATC-PSZ_1:1_FANNODE,Air Nodes
 Component Set,4,BRANCH,PSZ_1:1 AIR LOOP MAIN BRANCH,FAN:CONSTANTVOLUME,PSZ_1:1_FAN,PSZ_1:1_HEATC-PSZ_1:1_FANNODE,PSZ_1:1 SUPPLY EQUIPMENT OUTLET NODE,Air Nodes
 Component Set,5,BRANCH,PSZ_1:2 AIR LOOP MAIN BRANCH,AIRLOOPHVAC:OUTDOORAIRSYSTEM,PSZ_1:2_OA,PSZ_1:2 SUPPLY EQUIPMENT INLET NODE,PSZ_1:2_OA-PSZ_1:2_COOLCNODE,Air Nodes
 Component Set,6,BRANCH,PSZ_1:2 AIR LOOP MAIN BRANCH,COILSYSTEM:COOLING:DX,PSZ_1:2_COOLC,PSZ_1:2_OA-PSZ_1:2_COOLCNODE,PSZ_1:2_COOLC-PSZ_1:2_HEATCNODE,Air Nodes
 Component Set,7,BRANCH,PSZ_1:2 AIR LOOP MAIN BRANCH,COIL:HEATING:FUEL,PSZ_1:2_HEATC,PSZ_1:2_COOLC-PSZ_1:2_HEATCNODE,PSZ_1:2_HEATC-PSZ_1:2_FANNODE,Air Nodes
 Component Set,8,BRANCH,PSZ_1:2 AIR LOOP MAIN BRANCH,FAN:CONSTANTVOLUME,PSZ_1:2_FAN,PSZ_1:2_HEATC-PSZ_1:2_FANNODE,PSZ_1:2 SUPPLY EQUIPMENT OUTLET NODE,Air Nodes
 Component Set,9,BRANCH,PSZ_1:3 AIR LOOP MAIN BRANCH,AIRLOOPHVAC:OUTDOORAIRSYSTEM,PSZ_1:3_OA,PSZ_1:3 SUPPLY EQUIPMENT INLET NODE,PSZ_1:3_OA-PSZ_1:3_COOLCNODE,Air Nodes
 Component Set,10,BRANCH,PSZ_1:3 AIR LOOP MAIN BRANCH,COILSYSTEM:COOLING:DX,PSZ_1:3_COOLC,PSZ_1:3_OA-PSZ_1:3_COOLCNODE,PSZ_1:3_COOLC-PSZ_1:3_HEATCNODE,Air Nodes
 Component Set,11,BRANCH,PSZ_1:3 AIR LOOP MAIN BRANCH,COIL:HEATING:FUEL,PSZ_1:3_HEATC,PSZ_1:3_COOLC-PSZ_1:3_HEATCNODE,PSZ_1:3_HEATC-PSZ_1:3_FANNODE,Air Nodes
 Component Set,12,BRANCH,PSZ_1:3 AIR LOOP MAIN BRANCH,FAN:CONSTANTVOLUME,PSZ_1:3_FAN,PSZ_1:3_HEATC-PSZ_1:3_FANNODE,PSZ_1:3 SUPPLY EQUIPMENT OUTLET NODE,Air Nodes
 Component Set,13,BRANCH,PSZ_1:4 AIR LOOP MAIN BRANCH,AIRLOOPHVAC:OUTDOORAIRSYSTEM,PSZ_1:4_OA,PSZ_1:4 SUPPLY EQUIPMENT INLET NODE,PSZ_1:4_OA-PSZ_1:4_COOLCNODE,Air Nodes
 Component Set,14,BRANCH,PSZ_1:4 AIR LOOP MAIN BRANCH,COILSYSTEM:COOLING:DX,PSZ_1:4_COOLC,PSZ_1:4_OA-PSZ_1:4_COOLCNODE,PSZ_1:4_COOLC-PSZ_1:4_HEATCNODE,Air Nodes
 Component Set,15,BRANCH,PSZ_1:4 AIR LOOP MAIN BRANCH,COIL:HEATING:FUEL,PSZ_1:4_HEATC,PSZ_1:4_COOLC-PSZ_1:4_HEATCNODE,PSZ_1:4_HEATC-PSZ_1:4_FANNODE,Air Nodes
 Component Set,16,BRANCH,PSZ_1:4 AIR LOOP MAIN BRANCH,FAN:CONSTANTVOLUME,PSZ_1:4_FAN,PSZ_1:4_HEATC-PSZ_1:4_FANNODE,PSZ_1:4 SUPPLY EQUIPMENT OUTLET NODE,Air Nodes
 Component Set,17,BRANCH,PSZ_1:5 AIR LOOP MAIN BRANCH,AIRLOOPHVAC:OUTDOORAIRSYSTEM,PSZ_1:5_OA,PSZ_1:5 SUPPLY EQUIPMENT INLET NODE,PSZ_1:5_OA-PSZ_1:5_COOLCNODE,Air Nodes
 Component Set,18,BRANCH,PSZ_1:5 AIR LOOP MAIN BRANCH,COILSYSTEM:COOLING:DX,PSZ_1:5_COOLC,PSZ_1:5_OA-PSZ_1:5_COOLCNODE,PSZ_1:5_COOLC-PSZ_1:5_HEATCNODE,Air Nodes
 Component Set,19,BRANCH,PSZ_1:5 AIR LOOP MAIN BRANCH,COIL:HEATING:FUEL,PSZ_1:5_HEATC,PSZ_1:5_COOLC-PSZ_1:5_HEATCNODE,PSZ_1:5_HEATC-PSZ_1:5_FANNODE,Air Nodes
 Component Set,20,BRANCH,PSZ_1:5 AIR LOOP MAIN BRANCH,FAN:CONSTANTVOLUME,PSZ_1:5_FAN,PSZ_1:5_HEATC-PSZ_1:5_FANNODE,PSZ_1:5 SUPPLY EQUIPMENT OUTLET NODE,Air Nodes
 Component Set,21,BRANCH,PSZ_2:1 AIR LOOP MAIN BRANCH,AIRLOOPHVAC:OUTDOORAIRSYSTEM,PSZ_2:1_OA,PSZ_2:1 SUPPLY EQUIPMENT INLET NODE,PSZ_2:1_OA-PSZ_2:1_COOLCNODE,Air Nodes
 Component Set,22,BRANCH,PSZ_2:1 AIR LOOP MAIN BRANCH,COILSYSTEM:COOLING:DX,PSZ_2:1_COOLC,PSZ_2:1_OA-PSZ_2:1_COOLCNODE,PSZ_2:1_COOLC-PSZ_2:1_HEATCNODE,Air Nodes
 Component Set,23,BRANCH,PSZ_2:1 AIR LOOP MAIN BRANCH,COIL:HEATING:FUEL,PSZ_2:1_HEATC,PSZ_2:1_COOLC-PSZ_2:1_HEATCNODE,PSZ_2:1_HEATC-PSZ_2:1_FANNODE,Air Nodes
 Component Set,24,BRANCH,PSZ_2:1 AIR LOOP MAIN BRANCH,FAN:CONSTANTVOLUME,PSZ_2:1_FAN,PSZ_2:1_HEATC-PSZ_2:1_FANNODE,PSZ_2:1 SUPPLY EQUIPMENT OUTLET NODE,Air Nodes
 Component Set,25,BRANCH,PSZ_2:2 AIR LOOP MAIN BRANCH,AIRLOOPHVAC:OUTDOORAIRSYSTEM,PSZ_2:2_OA,PSZ_2:2 SUPPLY EQUIPMENT INLET NODE,PSZ_2:2_OA-PSZ_2:2_COOLCNODE,Air Nodes
 Component Set,26,BRANCH,PSZ_2:2 AIR LOOP MAIN BRANCH,COILSYSTEM:COOLING:DX,PSZ_2:2_COOLC,PSZ_2:2_OA-PSZ_2:2_COOLCNODE,PSZ_2:2_COOLC-PSZ_2:2_HEATCNODE,Air Nodes
 Component Set,27,BRANCH,PSZ_2:2 AIR LOOP MAIN BRANCH,COIL:HEATING:FUEL,PSZ_2:2_HEATC,PSZ_2:2_COOLC-PSZ_2:2_HEATCNODE,PSZ_2:2_HEATC-PSZ_2:2_FANNODE,Air Nodes
 Component Set,28,BRANCH,PSZ_2:2 AIR LOOP MAIN BRANCH,FAN:CONSTANTVOLUME,PSZ_2:2_FAN,PSZ_2:2_HEATC-PSZ_2:2_FANNODE,PSZ_2:2 SUPPLY EQUIPMENT OUTLET NODE,Air Nodes
 Component Set,29,BRANCH,PSZ_2:3 AIR LOOP MAIN BRANCH,AIRLOOPHVAC:OUTDOORAIRSYSTEM,PSZ_2:3_OA,PSZ_2:3 SUPPLY EQUIPMENT INLET NODE,PSZ_2:3_OA-PSZ_2:3_COOLCNODE,Air Nodes
 Component Set,30,BRANCH,PSZ_2:3 AIR LOOP MAIN BRANCH,COILSYSTEM:COOLING:DX,PSZ_2:3_COOLC,PSZ_2:3_OA-PSZ_2:3_COOLCNODE,PSZ_2:3_COOLC-PSZ_2:3_HEATCNODE,Air Nodes
 Component Set,31,BRANCH,PSZ_2:3 AIR LOOP MAIN BRANCH,COIL:HEATING:FUEL,PSZ_2:3_HEATC,PSZ_2:3_COOLC-PSZ_2:3_HEATCNODE,PSZ_2:3_HEATC-PSZ_2:3_FANNODE,Air Nodes
 Component Set,32,BRANCH,PSZ_2:3 AIR LOOP MAIN BRANCH,FAN:CONSTANTVOLUME,PSZ_2:3_FAN,PSZ_2:3_HEATC-PSZ_2:3_FANNODE,PSZ_2:3 SUPPLY EQUIPMENT OUTLET NODE,Air Nodes
 Component Set,33,BRANCH,PSZ_2:4 AIR LOOP MAIN BRANCH,AIRLOOPHVAC:OUTDOORAIRSYSTEM,PSZ_2:4_OA,PSZ_2:4 SUPPLY EQUIPMENT INLET NODE,PSZ_2:4_OA-PSZ_2:4_COOLCNODE,Air Nodes
 Component Set,34,BRANCH,PSZ_2:4 AIR LOOP MAIN BRANCH,COILSYSTEM:COOLING:DX,PSZ_2:4_COOLC,PSZ_2:4_OA-PSZ_2:4_COOLCNODE,PSZ_2:4_COOLC-PSZ_2:4_HEATCNODE,Air Nodes
 Component Set,35,BRANCH,PSZ_2:4 AIR LOOP MAIN BRANCH,COIL:HEATING:FUEL,PSZ_2:4_HEATC,PSZ_2:4_COOLC-PSZ_2:4_HEATCNODE,PSZ_2:4_HEATC-PSZ_2:4_FANNODE,Air Nodes
 Component Set,36,BRANCH,PSZ_2:4 AIR LOOP MAIN BRANCH,FAN:CONSTANTVOLUME,PSZ_2:4_FAN,PSZ_2:4_HEATC-PSZ_2:4_FANNODE,PSZ_2:4 SUPPLY EQUIPMENT OUTLET NODE,Air Nodes
 Component Set,37,BRANCH,PSZ_2:5 AIR LOOP MAIN BRANCH,AIRLOOPHVAC:OUTDOORAIRSYSTEM,PSZ_2:5_OA,PSZ_2:5 SUPPLY EQUIPMENT INLET NODE,PSZ_2:5_OA-PSZ_2:5_COOLCNODE,Air Nodes
 Component Set,38,BRANCH,PSZ_2:5 AIR LOOP MAIN BRANCH,COILSYSTEM:COOLING:DX,PSZ_2:5_COOLC,PSZ_2:5_OA-PSZ_2:5_COOLCNODE,PSZ_2:5_COOLC-PSZ_2:5_HEATCNODE,Air Nodes
 Component Set,39,BRANCH,PSZ_2:5 AIR LOOP MAIN BRANCH,COIL:HEATING:FUEL,PSZ_2:5_HEATC,PSZ_2:5_COOLC-PSZ_2:5_HEATCNODE,PSZ_2:5_HEATC-PSZ_2:5_FANNODE,Air Nodes
 Component Set,40,BRANCH,PSZ_2:5 AIR LOOP MAIN BRANCH,FAN:CONSTANTVOLUME,PSZ_2:5_FAN,PSZ_2:5_HEATC-PSZ_2:5_FANNODE,PSZ_2:5 SUPPLY EQUIPMENT OUTLET NODE,Air Nodes
 Component Set,41,BRANCH,PSZ_3:1 AIR LOOP MAIN BRANCH,AIRLOOPHVAC:OUTDOORAIRSYSTEM,PSZ_3:1_OA,PSZ_3:1 SUPPLY EQUIPMENT INLET NODE,PSZ_3:1_OA-PSZ_3:1_COOLCNODE,Air Nodes
 Component Set,42,BRANCH,PSZ_3:1 AIR LOOP MAIN BRANCH,COILSYSTEM:COOLING:DX,PSZ_3:1_COOLC,PSZ_3:1_OA-PSZ_3:1_COOLCNODE,PSZ_3:1_COOLC-PSZ_3:1_HEATCNODE,Air Nodes
 Component Set,43,BRANCH,PSZ_3:1 AIR LOOP MAIN BRANCH,COIL:HEATING:FUEL,PSZ_3:1_HEATC,PSZ_3:1_COOLC-PSZ_3:1_HEATCNODE,PSZ_3:1_HEATC-PSZ_3:1_FANNODE,Air Nodes
 Component Set,44,BRANCH,PSZ_3:1 AIR LOOP MAIN BRANCH,FAN:CONSTANTVOLUME,PSZ_3:1_FAN,PSZ_3:1_HEATC-PSZ_3:1_FANNODE,PSZ_3:1 SUPPLY EQUIPMENT OUTLET NODE,Air Nodes
 Component Set,45,BRANCH,PSZ_3:2 AIR LOOP MAIN BRANCH,AIRLOOPHVAC:OUTDOORAIRSYSTEM,PSZ_3:2_OA,PSZ_3:2 SUPPLY EQUIPMENT INLET NODE,PSZ_3:2_OA-PSZ_3:2_COOLCNODE,Air Nodes
 Component Set,46,BRANCH,PSZ_3:2 AIR LOOP MAIN BRANCH,COILSYSTEM:COOLING:DX,PSZ_3:2_COOLC,PSZ_3:2_OA-PSZ_3:2_COOLCNODE,PSZ_3:2_COOLC-PSZ_3:2_HEATCNODE,Air Nodes
 Component Set,47,BRANCH,PSZ_3:2 AIR LOOP MAIN BRANCH,COIL:HEATING:FUEL,PSZ_3:2_HEATC,PSZ_3:2_COOLC-PSZ_3:2_HEATCNODE,PSZ_3:2_HEATC-PSZ_3:2_FANNODE,Air Nodes
 Component Set,48,BRANCH,PSZ_3:2 AIR LOOP MAIN BRANCH,FAN:CONSTANTVOLUME,PSZ_3:2_FAN,PSZ_3:2_HEATC-PSZ_3:2_FANNODE,PSZ_3:2 SUPPLY EQUIPMENT OUTLET NODE,Air Nodes
 Component Set,49,BRANCH,PSZ_3:3 AIR LOOP MAIN BRANCH,AIRLOOPHVAC:OUTDOORAIRSYSTEM,PSZ_3:3_OA,PSZ_3:3 SUPPLY EQUIPMENT INLET NODE,PSZ_3:3_OA-PSZ_3:3_COOLCNODE,Air Nodes
 Component Set,50,BRANCH,PSZ_3:3 AIR LOOP MAIN BRANCH,COILSYSTEM:COOLING:DX,PSZ_3:3_COOLC,PSZ_3:3_OA-PSZ_3:3_COOLCNODE,PSZ_3:3_COOLC-PSZ_3:3_HEATCNODE,Air Nodes
 Component Set,51,BRANCH,PSZ_3:3 AIR LOOP MAIN BRANCH,COIL:HEATING:FUEL,PSZ_3:3_HEATC,PSZ_3:3_COOLC-PSZ_3:3_HEATCNODE,PSZ_3:3_HEATC-PSZ_3:3_FANNODE,Air Nodes
 Component Set,52,BRANCH,PSZ_3:3 AIR LOOP MAIN BRANCH,FAN:CONSTANTVOLUME,PSZ_3:3_FAN,PSZ_3:3_HEATC-PSZ_3:3_FANNODE,PSZ_3:3 SUPPLY EQUIPMENT OUTLET NODE,Air Nodes
 Component Set,53,BRANCH,PSZ_3:4 AIR LOOP MAIN BRANCH,AIRLOOPHVAC:OUTDOORAIRSYSTEM,PSZ_3:4_OA,PSZ_3:4 SUPPLY EQUIPMENT INLET NODE,PSZ_3:4_OA-PSZ_3:4_COOLCNODE,Air Nodes
 Component Set,54,BRANCH,PSZ_3:4 AIR LOOP MAIN BRANCH,COILSYSTEM:COOLING:DX,PSZ_3:4_COOLC,PSZ_3:4_OA-PSZ_3:4_COOLCNODE,PSZ_3:4_COOLC-PSZ_3:4_HEATCNODE,Air Nodes
 Component Set,55,BRANCH,PSZ_3:4 AIR LOOP MAIN BRANCH,COIL:HEATING:FUEL,PSZ_3:4_HEATC,PSZ_3:4_COOLC-PSZ_3:4_HEATCNODE,PSZ_3:4_HEATC-PSZ_3:4_FANNODE,Air Nodes
 Component Set,56,BRANCH,PSZ_3:4 AIR LOOP MAIN BRANCH,FAN:CONSTANTVOLUME,PSZ_3:4_FAN,PSZ_3:4_HEATC-PSZ_3:4_FANNODE,PSZ_3:4 SUPPLY EQUIPMENT OUTLET NODE,Air Nodes
 Component Set,57,BRANCH,PSZ_3:5 AIR LOOP MAIN BRANCH,AIRLOOPHVAC:OUTDOORAIRSYSTEM,PSZ_3:5_OA,PSZ_3:5 SUPPLY EQUIPMENT INLET NODE,PSZ_3:5_OA-PSZ_3:5_COOLCNODE,Air Nodes
 Component Set,58,BRANCH,PSZ_3:5 AIR LOOP MAIN BRANCH,COILSYSTEM:COOLING:DX,PSZ_3:5_COOLC,PSZ_3:5_OA-PSZ_3:5_COOLCNODE,PSZ_3:5_COOLC-PSZ_3:5_HEATCNODE,Air Nodes
 Component Set,59,BRANCH,PSZ_3:5 AIR LOOP MAIN BRANCH,COIL:HEATING:FUEL,PSZ_3:5_HEATC,PSZ_3:5_COOLC-PSZ_3:5_HEATCNODE,PSZ_3:5_HEATC-PSZ_3:5_FANNODE,Air Nodes
 Component Set,60,BRANCH,PSZ_3:5 AIR LOOP MAIN BRANCH,FAN:CONSTANTVOLUME,PSZ_3:5_FAN,PSZ_3:5_HEATC-PSZ_3:5_FANNODE,PSZ_3:5 SUPPLY EQUIPMENT OUTLET NODE,Air Nodes
 Component Set,61,BRANCH,SWHSYS1 DEMAND BYPASS BRANCH,PIPE:ADIABATIC,SWHSYS1 DEMAND BYPASS PIPE,SWHSYS1 DEMAND BYPASS PIPE INLET NODE,SWHSYS1 DEMAND BYPASS PIPE OUTLET NODE,Pipe Nodes
 Component Set,62,BRANCH,SWHSYS1 DEMAND INLET BRANCH,PIPE:ADIABATIC,SWHSYS1 DEMAND INLET PIPE,SWHSYS1 DEMAND INLET NODE,SWHSYS1 DEMAND INLET PIPE-SWHSYS1 DEMAND MIXER,Pipe Nodes
 Component Set,63,BRANCH,SWHSYS1 DEMAND LOAD BRANCH 1,WATERUSE:CONNECTIONS,CORE_BOTTOM WATER EQUIPMENT,CORE_BOTTOM WATER EQUIPMENT WATER INLET NODE,CORE_BOTTOM WATER EQUIPMENT WATER OUTLET NODE,DHW Nodes
 Component Set,64,BRANCH,SWHSYS1 DEMAND LOAD BRANCH 2,WATERUSE:CONNECTIONS,CORE_MID WATER EQUIPMENT,CORE_MID WATER EQUIPMENT WATER INLET NODE,CORE_MID WATER EQUIPMENT WATER OUTLET NODE,DHW Nodes
 Component Set,65,BRANCH,SWHSYS1 DEMAND LOAD BRANCH 3,WATERUSE:CONNECTIONS,CORE_TOP WATER EQUIPMENT,CORE_TOP WATER EQUIPMENT WATER INLET NODE,CORE_TOP WATER EQUIPMENT WATER OUTLET NODE,DHW Nodes
 Component Set,66,BRANCH,SWHSYS1 DEMAND OUTLET BRANCH,PIPE:ADIABATIC,SWHSYS1 DEMAND OUTLET PIPE,SWHSYS1 DEMAND MIXER-SWHSYS1 DEMAND OUTLET PIPE,SWHSYS1 DEMAND OUTLET NODE,Pipe Nodes
 Component Set,67,BRANCH,SWHSYS1 SUPPLY EQUIPMENT BRANCH,WATERHEATER:MIXED,SWHSYS1 WATER HEATER,SWHSYS1 PUMP-SWHSYS1 WATER HEATERNODE,SWHSYS1 SUPPLY EQUIPMENT OUTLET NODE,Use Side Water Nodes
 Component Set,68,BRANCH,SWHSYS1 SUPPLY EQUIPMENT BYPASS BRANCH,PIPE:ADIABATIC,SWHSYS1 SUPPLY EQUIPMENT BYPASS PIPE,SWHSYS1 SUPPLY EQUIP BYPASS INLET NODE,SWHSYS1 SUPPLY EQUIP BYPASS OUTLET NODE,Pipe Nodes
 Component Set,69,BRANCH,SWHSYS1 SUPPLY INLET BRANCH,PUMP:CONSTANTSPEED,SWHSYS1 PUMP,SWHSYS1 SUPPLY INLET NODE,SWHSYS1 PUMP-SWHSYS1 WATER HEATERNODEVIACONNECTOR,Water Nodes
 Component Set,70,BRANCH,SWHSYS1 SUPPLY OUTLET BRANCH,PIPE:ADIABATIC,SWHSYS1 SUPPLY OUTLET PIPE,SWHSYS1 SUPPLY MIXER-SWHSYS1 SUPPLY OUTLET PIPE,SWHSYS1 SUPPLY OUTLET NODE,Pipe Nodes
 Component Set,71,AIRLOOPHVAC:OUTDOORAIRSYSTEM,PSZ_1:1_OA,OUTDOORAIR:MIXER,PSZ_1:1_OAMIXING BOX,PSZ_1:1_OAINLET NODE,PSZ_1:1_OA-PSZ_1:1_COOLCNODE,Air Nodes
 Component Set,72,AIRLOOPHVAC:OUTDOORAIRSYSTEM,PSZ_1:2_OA,OUTDOORAIR:MIXER,PSZ_1:2_OAMIXING BOX,PSZ_1:2_OAINLET NODE,PSZ_1:2_OA-PSZ_1:2_COOLCNODE,Air Nodes
 Component Set,73,AIRLOOPHVAC:OUTDOORAIRSYSTEM,PSZ_1:3_OA,OUTDOORAIR:MIXER,PSZ_1:3_OAMIXING BOX,PSZ_1:3_OAINLET NODE,PSZ_1:3_OA-PSZ_1:3_COOLCNODE,Air Nodes
 Component Set,74,AIRLOOPHVAC:OUTDOORAIRSYSTEM,PSZ_1:4_OA,OUTDOORAIR:MIXER,PSZ_1:4_OAMIXING BOX,PSZ_1:4_OAINLET NODE,PSZ_1:4_OA-PSZ_1:4_COOLCNODE,Air Nodes
 Component Set,75,AIRLOOPHVAC:OUTDOORAIRSYSTEM,PSZ_1:5_OA,OUTDOORAIR:MIXER,PSZ_1:5_OAMIXING BOX,PSZ_1:5_OAINLET NODE,PSZ_1:5_OA-PSZ_1:5_COOLCNODE,Air Nodes
 Component Set,76,AIRLOOPHVAC:OUTDOORAIRSYSTEM,PSZ_2:1_OA,OUTDOORAIR:MIXER,PSZ_2:1_OAMIXING BOX,PSZ_2:1_OAINLET NODE,PSZ_2:1_OA-PSZ_2:1_COOLCNODE,Air Nodes
 Component Set,77,AIRLOOPHVAC:OUTDOORAIRSYSTEM,PSZ_2:2_OA,OUTDOORAIR:MIXER,PSZ_2:2_OAMIXING BOX,PSZ_2:2_OAINLET NODE,PSZ_2:2_OA-PSZ_2:2_COOLCNODE,Air Nodes
 Component Set,78,AIRLOOPHVAC:OUTDOORAIRSYSTEM,PSZ_2:3_OA,OUTDOORAIR:MIXER,PSZ_2:3_OAMIXING BOX,PSZ_2:3_OAINLET NODE,PSZ_2:3_OA-PSZ_2:3_COOLCNODE,Air Nodes
 Component Set,79,AIRLOOPHVAC:OUTDOORAIRSYSTEM,PSZ_2:4_OA,OUTDOORAIR:MIXER,PSZ_2:4_OAMIXING BOX,PSZ_2:4_OAINLET NODE,PSZ_2:4_OA-PSZ_2:4_COOLCNODE,Air Nodes
 Component Set,80,AIRLOOPHVAC:OUTDOORAIRSYSTEM,PSZ_2:5_OA,OUTDOORAIR:MIXER,PSZ_2:5_OAMIXING BOX,PSZ_2:5_OAINLET NODE,PSZ_2:5_OA-PSZ_2:5_COOLCNODE,Air Nodes
 Component Set,81,AIRLOOPHVAC:OUTDOORAIRSYSTEM,PSZ_3:1_OA,OUTDOORAIR:MIXER,PSZ_3:1_OAMIXING BOX,PSZ_3:1_OAINLET NODE,PSZ_3:1_OA-PSZ_3:1_COOLCNODE,Air Nodes
 Component Set,82,AIRLOOPHVAC:OUTDOORAIRSYSTEM,PSZ_3:2_OA,OUTDOORAIR:MIXER,PSZ_3:2_OAMIXING BOX,PSZ_3:2_OAINLET NODE,PSZ_3:2_OA-PSZ_3:2_COOLCNODE,Air Nodes
 Component Set,83,AIRLOOPHVAC:OUTDOORAIRSYSTEM,PSZ_3:3_OA,OUTDOORAIR:MIXER,PSZ_3:3_OAMIXING BOX,PSZ_3:3_OAINLET NODE,PSZ_3:3_OA-PSZ_3:3_COOLCNODE,Air Nodes
 Component Set,84,AIRLOOPHVAC:OUTDOORAIRSYSTEM,PSZ_3:4_OA,OUTDOORAIR:MIXER,PSZ_3:4_OAMIXING BOX,PSZ_3:4_OAINLET NODE,PSZ_3:4_OA-PSZ_3:4_COOLCNODE,Air Nodes
 Component Set,85,AIRLOOPHVAC:OUTDOORAIRSYSTEM,PSZ_3:5_OA,OUTDOORAIR:MIXER,PSZ_3:5_OAMIXING BOX,PSZ_3:5_OAINLET NODE,PSZ_3:5_OA-PSZ_3:5_COOLCNODE,Air Nodes
 Component Set,86,COILSYSTEM:COOLING:DX,PSZ_1:1_COOLC,COIL:COOLING:DX:TWOSPEED,PSZ_1:1_COOLC DXCOIL,PSZ_1:1_OA-PSZ_1:1_COOLCNODE,PSZ_1:1_COOLC-PSZ_1:1_HEATCNODE,Air Nodes
 Component Set,87,COILSYSTEM:COOLING:DX,PSZ_1:2_COOLC,COIL:COOLING:DX:TWOSPEED,PSZ_1:2_COOLC DXCOIL,PSZ_1:2_OA-PSZ_1:2_COOLCNODE,PSZ_1:2_COOLC-PSZ_1:2_HEATCNODE,Air Nodes
 Component Set,88,COILSYSTEM:COOLING:DX,PSZ_1:3_COOLC,COIL:COOLING:DX:TWOSPEED,PSZ_1:3_COOLC DXCOIL,PSZ_1:3_OA-PSZ_1:3_COOLCNODE,PSZ_1:3_COOLC-PSZ_1:3_HEATCNODE,Air Nodes
 Component Set,89,COILSYSTEM:COOLING:DX,PSZ_1:4_COOLC,COIL:COOLING:DX:TWOSPEED,PSZ_1:4_COOLC DXCOIL,PSZ_1:4_OA-PSZ_1:4_COOLCNODE,PSZ_1:4_COOLC-PSZ_1:4_HEATCNODE,Air Nodes
 Component Set,90,COILSYSTEM:COOLING:DX,PSZ_1:5_COOLC,COIL:COOLING:DX:TWOSPEED,PSZ_1:5_COOLC DXCOIL,PSZ_1:5_OA-PSZ_1:5_COOLCNODE,PSZ_1:5_COOLC-PSZ_1:5_HEATCNODE,Air Nodes
 Component Set,91,COILSYSTEM:COOLING:DX,PSZ_2:1_COOLC,COIL:COOLING:DX:TWOSPEED,PSZ_2:1_COOLC DXCOIL,PSZ_2:1_OA-PSZ_2:1_COOLCNODE,PSZ_2:1_COOLC-PSZ_2:1_HEATCNODE,Air Nodes
 Component Set,92,COILSYSTEM:COOLING:DX,PSZ_2:2_COOLC,COIL:COOLING:DX:TWOSPEED,PSZ_2:2_COOLC DXCOIL,PSZ_2:2_OA-PSZ_2:2_COOLCNODE,PSZ_2:2_COOLC-PSZ_2:2_HEATCNODE,Air Nodes
 Component Set,93,COILSYSTEM:COOLING:DX,PSZ_2:3_COOLC,COIL:COOLING:DX:TWOSPEED,PSZ_2:3_COOLC DXCOIL,PSZ_2:3_OA-PSZ_2:3_COOLCNODE,PSZ_2:3_COOLC-PSZ_2:3_HEATCNODE,Air Nodes
 Component Set,94,COILSYSTEM:COOLING:DX,PSZ_2:4_COOLC,COIL:COOLING:DX:TWOSPEED,PSZ_2:4_COOLC DXCOIL,PSZ_2:4_OA-PSZ_2:4_COOLCNODE,PSZ_2:4_COOLC-PSZ_2:4_HEATCNODE,Air Nodes
 Component Set,95,COILSYSTEM:COOLING:DX,PSZ_2:5_COOLC,COIL:COOLING:DX:TWOSPEED,PSZ_2:5_COOLC DXCOIL,PSZ_2:5_OA-PSZ_2:5_COOLCNODE,PSZ_2:5_COOLC-PSZ_2:5_HEATCNODE,Air Nodes
 Component Set,96,COILSYSTEM:COOLING:DX,PSZ_3:1_COOLC,COIL:COOLING:DX:TWOSPEED,PSZ_3:1_COOLC DXCOIL,PSZ_3:1_OA-PSZ_3:1_COOLCNODE,PSZ_3:1_COOLC-PSZ_3:1_HEATCNODE,Air Nodes
 Component Set,97,COILSYSTEM:COOLING:DX,PSZ_3:2_COOLC,COIL:COOLING:DX:TWOSPEED,PSZ_3:2_COOLC DXCOIL,PSZ_3:2_OA-PSZ_3:2_COOLCNODE,PSZ_3:2_COOLC-PSZ_3:2_HEATCNODE,Air Nodes
 Component Set,98,COILSYSTEM:COOLING:DX,PSZ_3:3_COOLC,COIL:COOLING:DX:TWOSPEED,PSZ_3:3_COOLC DXCOIL,PSZ_3:3_OA-PSZ_3:3_COOLCNODE,PSZ_3:3_COOLC-PSZ_3:3_HEATCNODE,Air Nodes
 Component Set,99,COILSYSTEM:COOLING:DX,PSZ_3:4_COOLC,COIL:COOLING:DX:TWOSPEED,PSZ_3:4_COOLC DXCOIL,PSZ_3:4_OA-PSZ_3:4_COOLCNODE,PSZ_3:4_COOLC-PSZ_3:4_HEATCNODE,Air Nodes
 Component Set,100,COILSYSTEM:COOLING:DX,PSZ_3:5_COOLC,COIL:COOLING:DX:TWOSPEED,PSZ_3:5_COOLC DXCOIL,PSZ_3:5_OA-PSZ_3:5_COOLCNODE,PSZ_3:5_COOLC-PSZ_3:5_HEATCNODE,Air Nodes
! ===============================================================
! <# Plant Loops>,<Number of Plant Loops>
 #Plant Loops,1
! <Plant Loop>,<Plant Loop Name>,<Loop Type>,<Inlet Node Name>,<Outlet Node Name>,<Branch List>,<Connector List>
! <Plant Loop Connector>,<Connector Type>,<Connector Name>,<Loop Name>,<Loop Type>,<Number of Inlets/Outlets>
! <Plant Loop Connector Branches>,<Connector Node Count>,<Connector Type>,<Connector Name>,<Inlet Branch>,<Outlet Branch>,<Loop Name>,<Loop Type>
! <Plant Loop Connector Nodes>,<Connector Node Count>,<Connector Type>,<Connector Name>,<Inlet Node>,<Outlet Node>,<Loop Name>,<Loop Type>
! <Plant Loop Supply Connection>,<Plant Loop Name>,<Supply Side Outlet Node Name>,<Demand Side Inlet Node Name>
! <Plant Loop Return Connection>,<Plant Loop Name>,<Demand Side Outlet Node Name>,<Supply Side Inlet Node Name>
 Plant Loop,SWHSYS1,Demand,SWHSYS1 DEMAND INLET NODE,SWHSYS1 DEMAND OUTLET NODE,SWHSYS1 DEMAND BRANCHES,SWHSYS1 DEMAND CONNECTORS
   Plant Loop Connector,Splitter,SWHSYS1 DEMAND SPLITTER,SWHSYS1,Demand,4
     Plant Loop Connector Branches,1,Splitter,SWHSYS1 DEMAND SPLITTER,SWHSYS1 DEMAND INLET BRANCH,SWHSYS1 DEMAND LOAD BRANCH 1,SWHSYS1,Demand
     Plant Loop Connector Nodes,   1,Splitter,SWHSYS1 DEMAND SPLITTER,SWHSYS1 DEMAND INLET PIPE-SWHSYS1 DEMAND MIXER,CORE_BOTTOM WATER EQUIPMENT WATER INLET NODE,SWHSYS1,Demand
     Plant Loop Connector Branches,2,Splitter,SWHSYS1 DEMAND SPLITTER,SWHSYS1 DEMAND INLET BRANCH,SWHSYS1 DEMAND LOAD BRANCH 2,SWHSYS1,Demand
     Plant Loop Connector Nodes,   2,Splitter,SWHSYS1 DEMAND SPLITTER,SWHSYS1 DEMAND INLET PIPE-SWHSYS1 DEMAND MIXER,CORE_MID WATER EQUIPMENT WATER INLET NODE,SWHSYS1,Demand
     Plant Loop Connector Branches,3,Splitter,SWHSYS1 DEMAND SPLITTER,SWHSYS1 DEMAND INLET BRANCH,SWHSYS1 DEMAND LOAD BRANCH 3,SWHSYS1,Demand
     Plant Loop Connector Nodes,   3,Splitter,SWHSYS1 DEMAND SPLITTER,SWHSYS1 DEMAND INLET PIPE-SWHSYS1 DEMAND MIXER,CORE_TOP WATER EQUIPMENT WATER INLET NODE,SWHSYS1,Demand
     Plant Loop Connector Branches,4,Splitter,SWHSYS1 DEMAND SPLITTER,SWHSYS1 DEMAND INLET BRANCH,SWHSYS1 DEMAND BYPASS BRANCH,SWHSYS1,Demand
     Plant Loop Connector Nodes,   4,Splitter,SWHSYS1 DEMAND SPLITTER,SWHSYS1 DEMAND INLET PIPE-SWHSYS1 DEMAND MIXER,SWHSYS1 DEMAND BYPASS PIPE INLET NODE,SWHSYS1,Demand
   Plant Loop Connector,Mixer,SWHSYS1 DEMAND MIXER,SWHSYS1,Demand,4
     Plant Loop Connector Branches,1,Mixer,SWHSYS1 DEMAND MIXER,SWHSYS1 DEMAND LOAD BRANCH 1,SWHSYS1 DEMAND OUTLET BRANCH,SWHSYS1,Demand
     Plant Loop Connector Nodes,   1,Mixer,SWHSYS1 DEMAND MIXER,CORE_BOTTOM WATER EQUIPMENT WATER OUTLET NODE,SWHSYS1 DEMAND MIXER-SWHSYS1 DEMAND OUTLET PIPE,SWHSYS1,Demand
     Plant Loop Connector Branches,2,Mixer,SWHSYS1 DEMAND MIXER,SWHSYS1 DEMAND LOAD BRANCH 2,SWHSYS1 DEMAND OUTLET BRANCH,SWHSYS1,Demand
     Plant Loop Connector Nodes,   2,Mixer,SWHSYS1 DEMAND MIXER,CORE_MID WATER EQUIPMENT WATER OUTLET NODE,SWHSYS1 DEMAND MIXER-SWHSYS1 DEMAND OUTLET PIPE,SWHSYS1,Demand
     Plant Loop Connector Branches,3,Mixer,SWHSYS1 DEMAND MIXER,SWHSYS1 DEMAND LOAD BRANCH 3,SWHSYS1 DEMAND OUTLET BRANCH,SWHSYS1,Demand
     Plant Loop Connector Nodes,   3,Mixer,SWHSYS1 DEMAND MIXER,CORE_TOP WATER EQUIPMENT WATER OUTLET NODE,SWHSYS1 DEMAND MIXER-SWHSYS1 DEMAND OUTLET PIPE,SWHSYS1,Demand
     Plant Loop Connector Branches,4,Mixer,SWHSYS1 DEMAND MIXER,SWHSYS1 DEMAND BYPASS BRANCH,SWHSYS1 DEMAND OUTLET BRANCH,SWHSYS1,Demand
     Plant Loop Connector Nodes,   4,Mixer,SWHSYS1 DEMAND MIXER,SWHSYS1 DEMAND BYPASS PIPE OUTLET NODE,SWHSYS1 DEMAND MIXER-SWHSYS1 DEMAND OUTLET PIPE,SWHSYS1,Demand
 Plant Loop,SWHSYS1,Supply,SWHSYS1 SUPPLY INLET NODE,SWHSYS1 SUPPLY OUTLET NODE,SWHSYS1 SUPPLY BRANCHES,SWHSYS1 SUPPLY CONNECTORS
   Plant Loop Connector,Splitter,SWHSYS1 SUPPLY SPLITTER,SWHSYS1,Supply,2
     Plant Loop Connector Branches,1,Splitter,SWHSYS1 SUPPLY SPLITTER,SWHSYS1 SUPPLY INLET BRANCH,SWHSYS1 SUPPLY EQUIPMENT BRANCH,SWHSYS1,Supply
     Plant Loop Connector Nodes,   1,Splitter,SWHSYS1 SUPPLY SPLITTER,SWHSYS1 PUMP-SWHSYS1 WATER HEATERNODEVIACONNECTOR,SWHSYS1 PUMP-SWHSYS1 WATER HEATERNODE,SWHSYS1,Supply
     Plant Loop Connector Branches,2,Splitter,SWHSYS1 SUPPLY SPLITTER,SWHSYS1 SUPPLY INLET BRANCH,SWHSYS1 SUPPLY EQUIPMENT BYPASS BRANCH,SWHSYS1,Supply
     Plant Loop Connector Nodes,   2,Splitter,SWHSYS1 SUPPLY SPLITTER,SWHSYS1 PUMP-SWHSYS1 WATER HEATERNODEVIACONNECTOR,SWHSYS1 SUPPLY EQUIP BYPASS INLET NODE,SWHSYS1,Supply
   Plant Loop Connector,Mixer,SWHSYS1 SUPPLY MIXER,SWHSYS1,Supply,2
     Plant Loop Connector Branches,1,Mixer,SWHSYS1 SUPPLY MIXER,SWHSYS1 SUPPLY EQUIPMENT BRANCH,SWHSYS1 SUPPLY OUTLET BRANCH,SWHSYS1,Supply
     Plant Loop Connector Nodes,   1,Mixer,SWHSYS1 SUPPLY MIXER,SWHSYS1 SUPPLY EQUIPMENT OUTLET NODE,SWHSYS1 SUPPLY MIXER-SWHSYS1 SUPPLY OUTLET PIPE,SWHSYS1,Supply
     Plant Loop Connector Branches,2,Mixer,SWHSYS1 SUPPLY MIXER,SWHSYS1 SUPPLY EQUIPMENT BYPASS BRANCH,SWHSYS1 SUPPLY OUTLET BRANCH,SWHSYS1,Supply
     Plant Loop Connector Nodes,   2,Mixer,SWHSYS1 SUPPLY MIXER,SWHSYS1 SUPPLY EQUIP BYPASS OUTLET NODE,SWHSYS1 SUPPLY MIXER-SWHSYS1 SUPPLY OUTLET PIPE,SWHSYS1,Supply
 Plant Loop Supply Connection,SWHSYS1,SWHSYS1 SUPPLY OUTLET NODE,SWHSYS1 DEMAND INLET NODE
 Plant Loop Return Connection,SWHSYS1,SWHSYS1 DEMAND OUTLET NODE,SWHSYS1 SUPPLY INLET NODE
! ===============================================================
! <# Condenser Loops>,<Number of Condenser Loops>
 #Condenser Loops,0
! <Condenser Loop>,<Condenser Loop Name>,<Loop Type>,<Inlet Node Name>,<Outlet Node Name>,<Branch List>,<Connector List>
! <Condenser Loop Connector>,<Connector Type>,<Connector Name>,<Loop Name>,<Loop Type>,<Number of Inlets/Outlets>
! <Condenser Loop Connector Branches>,<Connector Node Count>,<Connector Type>,<Connector Name>,<Inlet Branch>,<Outlet Branch>,<Loop Name>,<Loop Type>
! <Condenser Loop Connector Nodes>,<Connector Node Count>,<Connector Type>,<Connector Name>,<Inlet Node>,<Outlet Node>,<Loop Name>,<Loop Type>
! <Condenser Loop Supply Connection>,<Condenser Loop Name>,<Supply Side Outlet Node Name>,<Demand Side Inlet Node Name>
! <Condenser Loop Return Connection>,<Condenser Loop Name>,<Demand Side Outlet Node Name>,<Supply Side Inlet Node Name>
! ===============================================================
! <# Controlled Zones>,<Number of Controlled Zones>
 #Controlled Zones,15
! <Controlled Zone>,<Controlled Zone Name>,<Equip List Name>,<Control List Name>,<Zone Node Name>,<# Inlet Nodes>,<# Exhaust Nodes>,<# Return Nodes>
! <Controlled Zone Inlet>,<Inlet Node Count>,<Controlled Zone Name>,<Supply Air Inlet Node Name>,<SD Sys:Cooling/Heating [DD:Cooling] Inlet Node Name>,<DD Sys:Heating Inlet Node Name>
! <Controlled Zone Exhaust>,<Exhaust Node Count>,<Controlled Zone Name>,<Exhaust Air Node Name>
 Controlled Zone,CORE_BOTTOM,CORE_BOTTOM EQUIPMENT,,CORE_BOTTOM AIR NODE,1,0,1
   Controlled Zone Inlet,1,CORE_BOTTOM,CORE_BOTTOM DIRECT AIR INLET NODE NAME,CORE_BOTTOM DIRECT AIR INLET NODE NAME,N/A
   Controlled Zone Return,1,CORE_BOTTOM,CORE_BOTTOM RETURN AIR NODE NAME
 Controlled Zone,CORE_MID,CORE_MID EQUIPMENT,,CORE_MID AIR NODE,1,0,1
   Controlled Zone Inlet,1,CORE_MID,CORE_MID DIRECT AIR INLET NODE NAME,CORE_MID DIRECT AIR INLET NODE NAME,N/A
   Controlled Zone Return,1,CORE_MID,CORE_MID RETURN AIR NODE NAME
 Controlled Zone,CORE_TOP,CORE_TOP EQUIPMENT,,CORE_TOP AIR NODE,1,0,1
   Controlled Zone Inlet,1,CORE_TOP,CORE_TOP DIRECT AIR INLET NODE NAME,CORE_TOP DIRECT AIR INLET NODE NAME,N/A
   Controlled Zone Return,1,CORE_TOP,CORE_TOP RETURN AIR NODE NAME
 Controlled Zone,PERIMETER_BOT_ZN_1,PERIMETER_BOT_ZN_1 EQUIPMENT,,PERIMETER_BOT_ZN_1 AIR NODE,1,0,1
   Controlled Zone Inlet,1,PERIMETER_BOT_ZN_1,PERIMETER_BOT_ZN_1 DIRECT AIR INLET NODE NAME,PERIMETER_BOT_ZN_1 DIRECT AIR INLET NODE NAME,N/A
   Controlled Zone Return,1,PERIMETER_BOT_ZN_1,PERIMETER_BOT_ZN_1 RETURN AIR NODE NAME
 Controlled Zone,PERIMETER_BOT_ZN_2,PERIMETER_BOT_ZN_2 EQUIPMENT,,PERIMETER_BOT_ZN_2 AIR NODE,1,0,1
   Controlled Zone Inlet,1,PERIMETER_BOT_ZN_2,PERIMETER_BOT_ZN_2 DIRECT AIR INLET NODE NAME,PERIMETER_BOT_ZN_2 DIRECT AIR INLET NODE NAME,N/A
   Controlled Zone Return,1,PERIMETER_BOT_ZN_2,PERIMETER_BOT_ZN_2 RETURN AIR NODE NAME
 Controlled Zone,PERIMETER_BOT_ZN_3,PERIMETER_BOT_ZN_3 EQUIPMENT,,PERIMETER_BOT_ZN_3 AIR NODE,1,0,1
   Controlled Zone Inlet,1,PERIMETER_BOT_ZN_3,PERIMETER_BOT_ZN_3 DIRECT AIR INLET NODE NAME,PERIMETER_BOT_ZN_3 DIRECT AIR INLET NODE NAME,N/A
   Controlled Zone Return,1,PERIMETER_BOT_ZN_3,PERIMETER_BOT_ZN_3 RETURN AIR NODE NAME
 Controlled Zone,PERIMETER_BOT_ZN_4,PERIMETER_BOT_ZN_4 EQUIPMENT,,PERIMETER_BOT_ZN_4 AIR NODE,1,0,1
   Controlled Zone Inlet,1,PERIMETER_BOT_ZN_4,PERIMETER_BOT_ZN_4 DIRECT AIR INLET NODE NAME,PERIMETER_BOT_ZN_4 DIRECT AIR INLET NODE NAME,N/A
   Controlled Zone Return,1,PERIMETER_BOT_ZN_4,PERIMETER_BOT_ZN_4 RETURN AIR NODE NAME
 Controlled Zone,PERIMETER_MID_ZN_1,PERIMETER_MID_ZN_1 EQUIPMENT,,PERIMETER_MID_ZN_1 AIR NODE,1,0,1
   Controlled Zone Inlet,1,PERIMETER_MID_ZN_1,PERIMETER_MID_ZN_1 DIRECT AIR INLET NODE NAME,PERIMETER_MID_ZN_1 DIRECT AIR INLET NODE NAME,N/A
   Controlled Zone Return,1,PERIMETER_MID_ZN_1,PERIMETER_MID_ZN_1 RETURN AIR NODE NAME
 Controlled Zone,PERIMETER_MID_ZN_2,PERIMETER_MID_ZN_2 EQUIPMENT,,PERIMETER_MID_ZN_2 AIR NODE,1,0,1
   Controlled Zone Inlet,1,PERIMETER_MID_ZN_2,PERIMETER_MID_ZN_2 DIRECT AIR INLET NODE NAME,PERIMETER_MID_ZN_2 DIRECT AIR INLET NODE NAME,N/A
   Controlled Zone Return,1,PERIMETER_MID_ZN_2,PERIMETER_MID_ZN_2 RETURN AIR NODE NAME
 Controlled Zone,PERIMETER_MID_ZN_3,PERIMETER_MID_ZN_3 EQUIPMENT,,PERIMETER_MID_ZN_3 AIR NODE,1,0,1
   Controlled Zone Inlet,1,PERIMETER_MID_ZN_3,PERIMETER_MID_ZN_3 DIRECT AIR INLET NODE NAME,PERIMETER_MID_ZN_3 DIRECT AIR INLET NODE NAME,N/A
   Controlled Zone Return,1,PERIMETER_MID_ZN_3,PERIMETER_MID_ZN_3 RETURN AIR NODE NAME
 Controlled Zone,PERIMETER_MID_ZN_4,PERIMETER_MID_ZN_4 EQUIPMENT,,PERIMETER_MID_ZN_4 AIR NODE,1,0,1
   Controlled Zone Inlet,1,PERIMETER_MID_ZN_4,PERIMETER_MID_ZN_4 DIRECT AIR INLET NODE NAME,PERIMETER_MID_ZN_4 DIRECT AIR INLET NODE NAME,N/A
   Controlled Zone Return,1,PERIMETER_MID_ZN_4,PERIMETER_MID_ZN_4 RETURN AIR NODE NAME
 Controlled Zone,PERIMETER_TOP_ZN_1,PERIMETER_TOP_ZN_1 EQUIPMENT,,PERIMETER_TOP_ZN_1 AIR NODE,1,0,1
   Controlled Zone Inlet,1,PERIMETER_TOP_ZN_1,PERIMETER_TOP_ZN_1 DIRECT AIR INLET NODE NAME,PERIMETER_TOP_ZN_1 DIRECT AIR INLET NODE NAME,N/A
   Controlled Zone Return,1,PERIMETER_TOP_ZN_1,PERIMETER_TOP_ZN_1 RETURN AIR NODE NAME
 Controlled Zone,PERIMETER_TOP_ZN_2,PERIMETER_TOP_ZN_2 EQUIPMENT,,PERIMETER_TOP_ZN_2 AIR NODE,1,0,1
   Controlled Zone Inlet,1,PERIMETER_TOP_ZN_2,PERIMETER_TOP_ZN_2 DIRECT AIR INLET NODE NAME,PERIMETER_TOP_ZN_2 DIRECT AIR INLET NODE NAME,N/A
   Controlled Zone Return,1,PERIMETER_TOP_ZN_2,PERIMETER_TOP_ZN_2 RETURN AIR NODE NAME
 Controlled Zone,PERIMETER_TOP_ZN_3,PERIMETER_TOP_ZN_3 EQUIPMENT,,PERIMETER_TOP_ZN_3 AIR NODE,1,0,1
   Controlled Zone Inlet,1,PERIMETER_TOP_ZN_3,PERIMETER_TOP_ZN_3 DIRECT AIR INLET NODE NAME,PERIMETER_TOP_ZN_3 DIRECT AIR INLET NODE NAME,N/A
   Controlled Zone Return,1,PERIMETER_TOP_ZN_3,PERIMETER_TOP_ZN_3 RETURN AIR NODE NAME
 Controlled Zone,PERIMETER_TOP_ZN_4,PERIMETER_TOP_ZN_4 EQUIPMENT,,PERIMETER_TOP_ZN_4 AIR NODE,1,0,1
   Controlled Zone Inlet,1,PERIMETER_TOP_ZN_4,PERIMETER_TOP_ZN_4 DIRECT AIR INLET NODE NAME,PERIMETER_TOP_ZN_4 DIRECT AIR INLET NODE NAME,N/A
   Controlled Zone Return,1,PERIMETER_TOP_ZN_4,PERIMETER_TOP_ZN_4 RETURN AIR NODE NAME
! ===============================================================
! <#Zone Equipment Lists>,<Number of Zone Equipment Lists>
 #Zone Equipment Lists,15
! <Zone Equipment List>,<Zone Equipment List Count>,<Zone Equipment List Name>,<Zone Name>,<Number of Components>
! <Zone Equipment Component>,<Component Count>,<Component Type>,<Component Name>,<Zone Name>,<Heating Priority>,<Cooling Priority>
 Zone Equipment List,1,CORE_BOTTOM EQUIPMENT,CORE_BOTTOM,1
   Zone Equipment Component,1,AIRTERMINAL:SINGLEDUCT:UNCONTROLLED,CORE_BOTTOM DIRECT AIR,CORE_BOTTOM,1,1
 Zone Equipment List,2,CORE_MID EQUIPMENT,CORE_MID,1
   Zone Equipment Component,1,AIRTERMINAL:SINGLEDUCT:UNCONTROLLED,CORE_MID DIRECT AIR,CORE_MID,1,1
 Zone Equipment List,3,CORE_TOP EQUIPMENT,CORE_TOP,1
   Zone Equipment Component,1,AIRTERMINAL:SINGLEDUCT:UNCONTROLLED,CORE_TOP DIRECT AIR,CORE_TOP,1,1
 Zone Equipment List,6,PERIMETER_BOT_ZN_1 EQUIPMENT,PERIMETER_BOT_ZN_1,1
   Zone Equipment Component,1,AIRTERMINAL:SINGLEDUCT:UNCONTROLLED,PERIMETER_BOT_ZN_1 DIRECT AIR,PERIMETER_BOT_ZN_1,1,1
 Zone Equipment List,7,PERIMETER_BOT_ZN_2 EQUIPMENT,PERIMETER_BOT_ZN_2,1
   Zone Equipment Component,1,AIRTERMINAL:SINGLEDUCT:UNCONTROLLED,PERIMETER_BOT_ZN_2 DIRECT AIR,PERIMETER_BOT_ZN_2,1,1
 Zone Equipment List,8,PERIMETER_BOT_ZN_3 EQUIPMENT,PERIMETER_BOT_ZN_3,1
   Zone Equipment Component,1,AIRTERMINAL:SINGLEDUCT:UNCONTROLLED,PERIMETER_BOT_ZN_3 DIRECT AIR,PERIMETER_BOT_ZN_3,1,1
 Zone Equipment List,9,PERIMETER_BOT_ZN_4 EQUIPMENT,PERIMETER_BOT_ZN_4,1
   Zone Equipment Component,1,AIRTERMINAL:SINGLEDUCT:UNCONTROLLED,PERIMETER_BOT_ZN_4 DIRECT AIR,PERIMETER_BOT_ZN_4,1,1
 Zone Equipment List,10,PERIMETER_MID_ZN_1 EQUIPMENT,PERIMETER_MID_ZN_1,1
   Zone Equipment Component,1,AIRTERMINAL:SINGLEDUCT:UNCONTROLLED,PERIMETER_MID_ZN_1 DIRECT AIR,PERIMETER_MID_ZN_1,1,1
 Zone Equipment List,11,PERIMETER_MID_ZN_2 EQUIPMENT,PERIMETER_MID_ZN_2,1
   Zone Equipment Component,1,AIRTERMINAL:SINGLEDUCT:UNCONTROLLED,PERIMETER_MID_ZN_2 DIRECT AIR,PERIMETER_MID_ZN_2,1,1
 Zone Equipment List,12,PERIMETER_MID_ZN_3 EQUIPMENT,PERIMETER_MID_ZN_3,1
   Zone Equipment Component,1,AIRTERMINAL:SINGLEDUCT:UNCONTROLLED,PERIMETER_MID_ZN_3 DIRECT AIR,PERIMETER_MID_ZN_3,1,1
 Zone Equipment List,13,PERIMETER_MID_ZN_4 EQUIPMENT,PERIMETER_MID_ZN_4,1
   Zone Equipment Component,1,AIRTERMINAL:SINGLEDUCT:UNCONTROLLED,PERIMETER_MID_ZN_4 DIRECT AIR,PERIMETER_MID_ZN_4,1,1
 Zone Equipment List,14,PERIMETER_TOP_ZN_1 EQUIPMENT,PERIMETER_TOP_ZN_1,1
   Zone Equipment Component,1,AIRTERMINAL:SINGLEDUCT:UNCONTROLLED,PERIMETER_TOP_ZN_1 DIRECT AIR,PERIMETER_TOP_ZN_1,1,1
 Zone Equipment List,15,PERIMETER_TOP_ZN_2 EQUIPMENT,PERIMETER_TOP_ZN_2,1
   Zone Equipment Component,1,AIRTERMINAL:SINGLEDUCT:UNCONTROLLED,PERIMETER_TOP_ZN_2 DIRECT AIR,PERIMETER_TOP_ZN_2,1,1
 Zone Equipment List,16,PERIMETER_TOP_ZN_3 EQUIPMENT,PERIMETER_TOP_ZN_3,1
   Zone Equipment Component,1,AIRTERMINAL:SINGLEDUCT:UNCONTROLLED,PERIMETER_TOP_ZN_3 DIRECT AIR,PERIMETER_TOP_ZN_3,1,1
 Zone Equipment List,17,PERIMETER_TOP_ZN_4 EQUIPMENT,PERIMETER_TOP_ZN_4,1
   Zone Equipment Component,1,AIRTERMINAL:SINGLEDUCT:UNCONTROLLED,PERIMETER_TOP_ZN_4 DIRECT AIR,PERIMETER_TOP_ZN_4,1,1
! ===============================================================
! <#AirLoopHVACs>,<Number of AirLoopHVACs>
 #AirLoopHVACs,15
! <AirLoopHVAC>,<Air Loop Name>,<# Return Nodes>,<# Supply Nodes>,<# Zones Cooled>,<# Zones Heated>,<Outdoor Air Used>
! <AirLoop Return Connections>,<Connection Count>,<AirLoopHVAC Name>,<Zn Eqp Return Node #>,<Zn Eqp Return Node Name>,<AirLoop Return Node #>,<Air Loop Return Node Name>
! <AirLoop Supply Connections>,<Connection Count>,<AirLoopHVAC Name>,<Zn Eqp Supply Node #>,<Zn Eqp Supply Node Name>,<AirLoop Supply Node #>,<Air Loop Supply Node Name>
! <Cooled Zone Info>,<Cooled Zone Count>,<Cooled Zone Name>,<Cooled Zone Inlet Node #>,<Cooled Zone Inlet Node Name>,<AirLoopHVAC Name>
! <Heated Zone Info>,<Heated Zone Count>,<Heated Zone Name>,<Heated Zone Inlet Node #>,<Heated Zone Inlet Node Name>,<AirLoopHVAC Name>
! <Outdoor Air Connections>,<OA Inlet Node #>,<OA Return Air Inlet Node Name>,<OA Outlet Node #>,<OA Mixed Air Outlet Node Name>,<AirLoopHVAC Name>
! <AirLoopHVAC Connector>,<Connector Type>,<Connector Name>,<Loop Name>,<Loop Type>,<Number of Inlets/Outlets>
! <AirLoopHVAC Connector Branches>,<Connector Node Count>,<Connector Type>,<Connector Name>,<Inlet Branch>,<Outlet Branch>,<Loop Name>,<Loop Type>
! <AirLoopHVAC Connector Nodes>,<Connector Node Count>,<Connector Type>,<Connector Name>,<Inlet Node>,<Outlet Node>,<Loop Name>,<Loop Type>
 AirLoopHVAC,PSZ_1:1,1,1,1,0,Yes
   AirLoop Return Connections,1,PSZ_1:1,171,PSZ_1:1 ZONE EQUIPMENT OUTLET NODE,31,PSZ_1:1 SUPPLY EQUIPMENT INLET NODE
   AirLoop Supply Connections,1,PSZ_1:1,156,PSZ_1:1 ZONE EQUIPMENT INLET NODE,35,PSZ_1:1 SUPPLY EQUIPMENT OUTLET NODE
   Cooled Zone Info,1,CORE_BOTTOM,1,CORE_BOTTOM DIRECT AIR INLET NODE NAME,PSZ_1:1
   Outdoor Air Connections,31,PSZ_1:1 SUPPLY EQUIPMENT INLET NODE,32,PSZ_1:1_OA-PSZ_1:1_COOLCNODE,PSZ_1:1
 AirLoopHVAC,PSZ_1:2,1,1,1,0,Yes
   AirLoop Return Connections,1,PSZ_1:2,172,PSZ_1:2 ZONE EQUIPMENT OUTLET NODE,36,PSZ_1:2 SUPPLY EQUIPMENT INLET NODE
   AirLoop Supply Connections,1,PSZ_1:2,157,PSZ_1:2 ZONE EQUIPMENT INLET NODE,40,PSZ_1:2 SUPPLY EQUIPMENT OUTLET NODE
   Cooled Zone Info,1,PERIMETER_BOT_ZN_1,19,PERIMETER_BOT_ZN_1 DIRECT AIR INLET NODE NAME,PSZ_1:2
   Outdoor Air Connections,36,PSZ_1:2 SUPPLY EQUIPMENT INLET NODE,37,PSZ_1:2_OA-PSZ_1:2_COOLCNODE,PSZ_1:2
 AirLoopHVAC,PSZ_1:3,1,1,1,0,Yes
   AirLoop Return Connections,1,PSZ_1:3,173,PSZ_1:3 ZONE EQUIPMENT OUTLET NODE,41,PSZ_1:3 SUPPLY EQUIPMENT INLET NODE
   AirLoop Supply Connections,1,PSZ_1:3,158,PSZ_1:3 ZONE EQUIPMENT INLET NODE,45,PSZ_1:3 SUPPLY EQUIPMENT OUTLET NODE
   Cooled Zone Info,1,PERIMETER_BOT_ZN_2,20,PERIMETER_BOT_ZN_2 DIRECT AIR INLET NODE NAME,PSZ_1:3
   Outdoor Air Connections,41,PSZ_1:3 SUPPLY EQUIPMENT INLET NODE,42,PSZ_1:3_OA-PSZ_1:3_COOLCNODE,PSZ_1:3
 AirLoopHVAC,PSZ_1:4,1,1,1,0,Yes
   AirLoop Return Connections,1,PSZ_1:4,174,PSZ_1:4 ZONE EQUIPMENT OUTLET NODE,46,PSZ_1:4 SUPPLY EQUIPMENT INLET NODE
   AirLoop Supply Connections,1,PSZ_1:4,159,PSZ_1:4 ZONE EQUIPMENT INLET NODE,50,PSZ_1:4 SUPPLY EQUIPMENT OUTLET NODE
   Cooled Zone Info,1,PERIMETER_BOT_ZN_3,21,PERIMETER_BOT_ZN_3 DIRECT AIR INLET NODE NAME,PSZ_1:4
   Outdoor Air Connections,46,PSZ_1:4 SUPPLY EQUIPMENT INLET NODE,47,PSZ_1:4_OA-PSZ_1:4_COOLCNODE,PSZ_1:4
 AirLoopHVAC,PSZ_1:5,1,1,1,0,Yes
   AirLoop Return Connections,1,PSZ_1:5,175,PSZ_1:5 ZONE EQUIPMENT OUTLET NODE,51,PSZ_1:5 SUPPLY EQUIPMENT INLET NODE
   AirLoop Supply Connections,1,PSZ_1:5,160,PSZ_1:5 ZONE EQUIPMENT INLET NODE,55,PSZ_1:5 SUPPLY EQUIPMENT OUTLET NODE
   Cooled Zone Info,1,PERIMETER_BOT_ZN_4,22,PERIMETER_BOT_ZN_4 DIRECT AIR INLET NODE NAME,PSZ_1:5
   Outdoor Air Connections,51,PSZ_1:5 SUPPLY EQUIPMENT INLET NODE,52,PSZ_1:5_OA-PSZ_1:5_COOLCNODE,PSZ_1:5
 AirLoopHVAC,PSZ_2:1,1,1,1,0,Yes
   AirLoop Return Connections,1,PSZ_2:1,176,PSZ_2:1 ZONE EQUIPMENT OUTLET NODE,56,PSZ_2:1 SUPPLY EQUIPMENT INLET NODE
   AirLoop Supply Connections,1,PSZ_2:1,161,PSZ_2:1 ZONE EQUIPMENT INLET NODE,60,PSZ_2:1 SUPPLY EQUIPMENT OUTLET NODE
   Cooled Zone Info,1,CORE_MID,2,CORE_MID DIRECT AIR INLET NODE NAME,PSZ_2:1
   Outdoor Air Connections,56,PSZ_2:1 SUPPLY EQUIPMENT INLET NODE,57,PSZ_2:1_OA-PSZ_2:1_COOLCNODE,PSZ_2:1
 AirLoopHVAC,PSZ_2:2,1,1,1,0,Yes
   AirLoop Return Connections,1,PSZ_2:2,177,PSZ_2:2 ZONE EQUIPMENT OUTLET NODE,61,PSZ_2:2 SUPPLY EQUIPMENT INLET NODE
   AirLoop Supply Connections,1,PSZ_2:2,162,PSZ_2:2 ZONE EQUIPMENT INLET NODE,65,PSZ_2:2 SUPPLY EQUIPMENT OUTLET NODE
   Cooled Zone Info,1,PERIMETER_MID_ZN_1,23,PERIMETER_MID_ZN_1 DIRECT AIR INLET NODE NAME,PSZ_2:2
   Outdoor Air Connections,61,PSZ_2:2 SUPPLY EQUIPMENT INLET NODE,62,PSZ_2:2_OA-PSZ_2:2_COOLCNODE,PSZ_2:2
 AirLoopHVAC,PSZ_2:3,1,1,1,0,Yes
   AirLoop Return Connections,1,PSZ_2:3,178,PSZ_2:3 ZONE EQUIPMENT OUTLET NODE,66,PSZ_2:3 SUPPLY EQUIPMENT INLET NODE
   AirLoop Supply Connections,1,PSZ_2:3,163,PSZ_2:3 ZONE EQUIPMENT INLET NODE,70,PSZ_2:3 SUPPLY EQUIPMENT OUTLET NODE
   Cooled Zone Info,1,PERIMETER_MID_ZN_2,24,PERIMETER_MID_ZN_2 DIRECT AIR INLET NODE NAME,PSZ_2:3
   Outdoor Air Connections,66,PSZ_2:3 SUPPLY EQUIPMENT INLET NODE,67,PSZ_2:3_OA-PSZ_2:3_COOLCNODE,PSZ_2:3
 AirLoopHVAC,PSZ_2:4,1,1,1,0,Yes
   AirLoop Return Connections,1,PSZ_2:4,179,PSZ_2:4 ZONE EQUIPMENT OUTLET NODE,71,PSZ_2:4 SUPPLY EQUIPMENT INLET NODE
   AirLoop Supply Connections,1,PSZ_2:4,164,PSZ_2:4 ZONE EQUIPMENT INLET NODE,75,PSZ_2:4 SUPPLY EQUIPMENT OUTLET NODE
   Cooled Zone Info,1,PERIMETER_MID_ZN_3,25,PERIMETER_MID_ZN_3 DIRECT AIR INLET NODE NAME,PSZ_2:4
   Outdoor Air Connections,71,PSZ_2:4 SUPPLY EQUIPMENT INLET NODE,72,PSZ_2:4_OA-PSZ_2:4_COOLCNODE,PSZ_2:4
 AirLoopHVAC,PSZ_2:5,1,1,1,0,Yes
   AirLoop Return Connections,1,PSZ_2:5,180,PSZ_2:5 ZONE EQUIPMENT OUTLET NODE,76,PSZ_2:5 SUPPLY EQUIPMENT INLET NODE
   AirLoop Supply Connections,1,PSZ_2:5,165,PSZ_2:5 ZONE EQUIPMENT INLET NODE,80,PSZ_2:5 SUPPLY EQUIPMENT OUTLET NODE
   Cooled Zone Info,1,PERIMETER_MID_ZN_4,26,PERIMETER_MID_ZN_4 DIRECT AIR INLET NODE NAME,PSZ_2:5
   Outdoor Air Connections,76,PSZ_2:5 SUPPLY EQUIPMENT INLET NODE,77,PSZ_2:5_OA-PSZ_2:5_COOLCNODE,PSZ_2:5
 AirLoopHVAC,PSZ_3:1,1,1,1,0,Yes
   AirLoop Return Connections,1,PSZ_3:1,181,PSZ_3:1 ZONE EQUIPMENT OUTLET NODE,81,PSZ_3:1 SUPPLY EQUIPMENT INLET NODE
   AirLoop Supply Connections,1,PSZ_3:1,166,PSZ_3:1 ZONE EQUIPMENT INLET NODE,85,PSZ_3:1 SUPPLY EQUIPMENT OUTLET NODE
   Cooled Zone Info,1,CORE_TOP,3,CORE_TOP DIRECT AIR INLET NODE NAME,PSZ_3:1
   Outdoor Air Connections,81,PSZ_3:1 SUPPLY EQUIPMENT INLET NODE,82,PSZ_3:1_OA-PSZ_3:1_COOLCNODE,PSZ_3:1
 AirLoopHVAC,PSZ_3:2,1,1,1,0,Yes
   AirLoop Return Connections,1,PSZ_3:2,182,PSZ_3:2 ZONE EQUIPMENT OUTLET NODE,86,PSZ_3:2 SUPPLY EQUIPMENT INLET NODE
   AirLoop Supply Connections,1,PSZ_3:2,167,PSZ_3:2 ZONE EQUIPMENT INLET NODE,90,PSZ_3:2 SUPPLY EQUIPMENT OUTLET NODE
   Cooled Zone Info,1,PERIMETER_TOP_ZN_1,27,PERIMETER_TOP_ZN_1 DIRECT AIR INLET NODE NAME,PSZ_3:2
   Outdoor Air Connections,86,PSZ_3:2 SUPPLY EQUIPMENT INLET NODE,87,PSZ_3:2_OA-PSZ_3:2_COOLCNODE,PSZ_3:2
 AirLoopHVAC,PSZ_3:3,1,1,1,0,Yes
   AirLoop Return Connections,1,PSZ_3:3,183,PSZ_3:3 ZONE EQUIPMENT OUTLET NODE,91,PSZ_3:3 SUPPLY EQUIPMENT INLET NODE
   AirLoop Supply Connections,1,PSZ_3:3,168,PSZ_3:3 ZONE EQUIPMENT INLET NODE,95,PSZ_3:3 SUPPLY EQUIPMENT OUTLET NODE
   Cooled Zone Info,1,PERIMETER_TOP_ZN_2,28,PERIMETER_TOP_ZN_2 DIRECT AIR INLET NODE NAME,PSZ_3:3
   Outdoor Air Connections,91,PSZ_3:3 SUPPLY EQUIPMENT INLET NODE,92,PSZ_3:3_OA-PSZ_3:3_COOLCNODE,PSZ_3:3
 AirLoopHVAC,PSZ_3:4,1,1,1,0,Yes
   AirLoop Return Connections,1,PSZ_3:4,184,PSZ_3:4 ZONE EQUIPMENT OUTLET NODE,96,PSZ_3:4 SUPPLY EQUIPMENT INLET NODE
[...]
 Non-Parent Node Connection,PSZ_2:5_OAINLET NODE,OUTDOORAIR:MIXER,PSZ_2:5_OAMIXING BOX,Inlet,1
 Non-Parent Node Connection,PSZ_2:5_OARELIEF NODE,OUTDOORAIR:MIXER,PSZ_2:5_OAMIXING BOX,ReliefAir,1
 Non-Parent Node Connection,PSZ_2:5 SUPPLY EQUIPMENT INLET NODE,OUTDOORAIR:MIXER,PSZ_2:5_OAMIXING BOX,Inlet,1
 Non-Parent Node Connection,PSZ_3:1_OA-PSZ_3:1_COOLCNODE,OUTDOORAIR:MIXER,PSZ_3:1_OAMIXING BOX,Outlet,1
 Non-Parent Node Connection,PSZ_3:1_OAINLET NODE,OUTDOORAIR:MIXER,PSZ_3:1_OAMIXING BOX,Inlet,1
 Non-Parent Node Connection,PSZ_3:1_OARELIEF NODE,OUTDOORAIR:MIXER,PSZ_3:1_OAMIXING BOX,ReliefAir,1
 Non-Parent Node Connection,PSZ_3:1 SUPPLY EQUIPMENT INLET NODE,OUTDOORAIR:MIXER,PSZ_3:1_OAMIXING BOX,Inlet,1
 Non-Parent Node Connection,PSZ_3:2_OA-PSZ_3:2_COOLCNODE,OUTDOORAIR:MIXER,PSZ_3:2_OAMIXING BOX,Outlet,1
 Non-Parent Node Connection,PSZ_3:2_OAINLET NODE,OUTDOORAIR:MIXER,PSZ_3:2_OAMIXING BOX,Inlet,1
 Non-Parent Node Connection,PSZ_3:2_OARELIEF NODE,OUTDOORAIR:MIXER,PSZ_3:2_OAMIXING BOX,ReliefAir,1
 Non-Parent Node Connection,PSZ_3:2 SUPPLY EQUIPMENT INLET NODE,OUTDOORAIR:MIXER,PSZ_3:2_OAMIXING BOX,Inlet,1
 Non-Parent Node Connection,PSZ_3:3_OA-PSZ_3:3_COOLCNODE,OUTDOORAIR:MIXER,PSZ_3:3_OAMIXING BOX,Outlet,1
 Non-Parent Node Connection,PSZ_3:3_OAINLET NODE,OUTDOORAIR:MIXER,PSZ_3:3_OAMIXING BOX,Inlet,1
 Non-Parent Node Connection,PSZ_3:3_OARELIEF NODE,OUTDOORAIR:MIXER,PSZ_3:3_OAMIXING BOX,ReliefAir,1
 Non-Parent Node Connection,PSZ_3:3 SUPPLY EQUIPMENT INLET NODE,OUTDOORAIR:MIXER,PSZ_3:3_OAMIXING BOX,Inlet,1
 Non-Parent Node Connection,PSZ_3:4_OA-PSZ_3:4_COOLCNODE,OUTDOORAIR:MIXER,PSZ_3:4_OAMIXING BOX,Outlet,1
 Non-Parent Node Connection,PSZ_3:4_OAINLET NODE,OUTDOORAIR:MIXER,PSZ_3:4_OAMIXING BOX,Inlet,1
 Non-Parent Node Connection,PSZ_3:4_OARELIEF NODE,OUTDOORAIR:MIXER,PSZ_3:4_OAMIXING BOX,ReliefAir,1
 Non-Parent Node Connection,PSZ_3:4 SUPPLY EQUIPMENT INLET NODE,OUTDOORAIR:MIXER,PSZ_3:4_OAMIXING BOX,Inlet,1
 Non-Parent Node Connection,PSZ_3:5_OA-PSZ_3:5_COOLCNODE,OUTDOORAIR:MIXER,PSZ_3:5_OAMIXING BOX,Outlet,1
 Non-Parent Node Connection,PSZ_3:5_OAINLET NODE,OUTDOORAIR:MIXER,PSZ_3:5_OAMIXING BOX,Inlet,1
 Non-Parent Node Connection,PSZ_3:5_OARELIEF NODE,OUTDOORAIR:MIXER,PSZ_3:5_OAMIXING BOX,ReliefAir,1
 Non-Parent Node Connection,PSZ_3:5 SUPPLY EQUIPMENT INLET NODE,OUTDOORAIR:MIXER,PSZ_3:5_OAMIXING BOX,Inlet,1
 Non-Parent Node Connection,PSZ_1:1_HEATC-PSZ_1:1_FANNODE,FAN:CONSTANTVOLUME,PSZ_1:1_FAN,Inlet,1
 Non-Parent Node Connection,PSZ_1:1 SUPPLY EQUIPMENT OUTLET NODE,FAN:CONSTANTVOLUME,PSZ_1:1_FAN,Outlet,1
 Non-Parent Node Connection,PSZ_1:2_HEATC-PSZ_1:2_FANNODE,FAN:CONSTANTVOLUME,PSZ_1:2_FAN,Inlet,1
 Non-Parent Node Connection,PSZ_1:2 SUPPLY EQUIPMENT OUTLET NODE,FAN:CONSTANTVOLUME,PSZ_1:2_FAN,Outlet,1
 Non-Parent Node Connection,PSZ_1:3_HEATC-PSZ_1:3_FANNODE,FAN:CONSTANTVOLUME,PSZ_1:3_FAN,Inlet,1
 Non-Parent Node Connection,PSZ_1:3 SUPPLY EQUIPMENT OUTLET NODE,FAN:CONSTANTVOLUME,PSZ_1:3_FAN,Outlet,1
 Non-Parent Node Connection,PSZ_1:4_HEATC-PSZ_1:4_FANNODE,FAN:CONSTANTVOLUME,PSZ_1:4_FAN,Inlet,1
 Non-Parent Node Connection,PSZ_1:4 SUPPLY EQUIPMENT OUTLET NODE,FAN:CONSTANTVOLUME,PSZ_1:4_FAN,Outlet,1
 Non-Parent Node Connection,PSZ_1:5_HEATC-PSZ_1:5_FANNODE,FAN:CONSTANTVOLUME,PSZ_1:5_FAN,Inlet,1
 Non-Parent Node Connection,PSZ_1:5 SUPPLY EQUIPMENT OUTLET NODE,FAN:CONSTANTVOLUME,PSZ_1:5_FAN,Outlet,1
 Non-Parent Node Connection,PSZ_2:1_HEATC-PSZ_2:1_FANNODE,FAN:CONSTANTVOLUME,PSZ_2:1_FAN,Inlet,1
 Non-Parent Node Connection,PSZ_2:1 SUPPLY EQUIPMENT OUTLET NODE,FAN:CONSTANTVOLUME,PSZ_2:1_FAN,Outlet,1
 Non-Parent Node Connection,PSZ_2:2_HEATC-PSZ_2:2_FANNODE,FAN:CONSTANTVOLUME,PSZ_2:2_FAN,Inlet,1
 Non-Parent Node Connection,PSZ_2:2 SUPPLY EQUIPMENT OUTLET NODE,FAN:CONSTANTVOLUME,PSZ_2:2_FAN,Outlet,1
 Non-Parent Node Connection,PSZ_2:3_HEATC-PSZ_2:3_FANNODE,FAN:CONSTANTVOLUME,PSZ_2:3_FAN,Inlet,1
 Non-Parent Node Connection,PSZ_2:3 SUPPLY EQUIPMENT OUTLET NODE,FAN:CONSTANTVOLUME,PSZ_2:3_FAN,Outlet,1
 Non-Parent Node Connection,PSZ_2:4_HEATC-PSZ_2:4_FANNODE,FAN:CONSTANTVOLUME,PSZ_2:4_FAN,Inlet,1
 Non-Parent Node Connection,PSZ_2:4 SUPPLY EQUIPMENT OUTLET NODE,FAN:CONSTANTVOLUME,PSZ_2:4_FAN,Outlet,1
 Non-Parent Node Connection,PSZ_2:5_HEATC-PSZ_2:5_FANNODE,FAN:CONSTANTVOLUME,PSZ_2:5_FAN,Inlet,1
 Non-Parent Node Connection,PSZ_2:5 SUPPLY EQUIPMENT OUTLET NODE,FAN:CONSTANTVOLUME,PSZ_2:5_FAN,Outlet,1
 Non-Parent Node Connection,PSZ_3:1_HEATC-PSZ_3:1_FANNODE,FAN:CONSTANTVOLUME,PSZ_3:1_FAN,Inlet,1
 Non-Parent Node Connection,PSZ_3:1 SUPPLY EQUIPMENT OUTLET NODE,FAN:CONSTANTVOLUME,PSZ_3:1_FAN,Outlet,1
 Non-Parent Node Connection,PSZ_3:2_HEATC-PSZ_3:2_FANNODE,FAN:CONSTANTVOLUME,PSZ_3:2_FAN,Inlet,1
 Non-Parent Node Connection,PSZ_3:2 SUPPLY EQUIPMENT OUTLET NODE,FAN:CONSTANTVOLUME,PSZ_3:2_FAN,Outlet,1
 Non-Parent Node Connection,PSZ_3:3_HEATC-PSZ_3:3_FANNODE,FAN:CONSTANTVOLUME,PSZ_3:3_FAN,Inlet,1
 Non-Parent Node Connection,PSZ_3:3 SUPPLY EQUIPMENT OUTLET NODE,FAN:CONSTANTVOLUME,PSZ_3:3_FAN,Outlet,1
 Non-Parent Node Connection,PSZ_3:4_HEATC-PSZ_3:4_FANNODE,FAN:CONSTANTVOLUME,PSZ_3:4_FAN,Inlet,1
 Non-Parent Node Connection,PSZ_3:4 SUPPLY EQUIPMENT OUTLET NODE,FAN:CONSTANTVOLUME,PSZ_3:4_FAN,Outlet,1
 Non-Parent Node Connection,PSZ_3:5_HEATC-PSZ_3:5_FANNODE,FAN:CONSTANTVOLUME,PSZ_3:5_FAN,Inlet,1
 Non-Parent Node Connection,PSZ_3:5 SUPPLY EQUIPMENT OUTLET NODE,FAN:CONSTANTVOLUME,PSZ_3:5_FAN,Outlet,1
 Non-Parent Node Connection,PSZ_1:1_OA-PSZ_1:1_COOLCNODE,CONTROLLER:OUTDOORAIR,PSZ_1:1_OA_CONTROLLER,Sensor,1
 Non-Parent Node Connection,PSZ_1:1_OAINLET NODE,CONTROLLER:OUTDOORAIR,PSZ_1:1_OA_CONTROLLER,Actuator,1
 Non-Parent Node Connection,PSZ_1:1_OARELIEF NODE,CONTROLLER:OUTDOORAIR,PSZ_1:1_OA_CONTROLLER,Actuator,1
 Non-Parent Node Connection,PSZ_1:1 SUPPLY EQUIPMENT INLET NODE,CONTROLLER:OUTDOORAIR,PSZ_1:1_OA_CONTROLLER,Sensor,1
 Non-Parent Node Connection,PSZ_1:2_OA-PSZ_1:2_COOLCNODE,CONTROLLER:OUTDOORAIR,PSZ_1:2_OA_CONTROLLER,Sensor,1
 Non-Parent Node Connection,PSZ_1:2_OAINLET NODE,CONTROLLER:OUTDOORAIR,PSZ_1:2_OA_CONTROLLER,Actuator,1
 Non-Parent Node Connection,PSZ_1:2_OARELIEF NODE,CONTROLLER:OUTDOORAIR,PSZ_1:2_OA_CONTROLLER,Actuator,1
 Non-Parent Node Connection,PSZ_1:2 SUPPLY EQUIPMENT INLET NODE,CONTROLLER:OUTDOORAIR,PSZ_1:2_OA_CONTROLLER,Sensor,1
 Non-Parent Node Connection,PSZ_1:3_OA-PSZ_1:3_COOLCNODE,CONTROLLER:OUTDOORAIR,PSZ_1:3_OA_CONTROLLER,Sensor,1
 Non-Parent Node Connection,PSZ_1:3_OAINLET NODE,CONTROLLER:OUTDOORAIR,PSZ_1:3_OA_CONTROLLER,Actuator,1
 Non-Parent Node Connection,PSZ_1:3_OARELIEF NODE,CONTROLLER:OUTDOORAIR,PSZ_1:3_OA_CONTROLLER,Actuator,1
 Non-Parent Node Connection,PSZ_1:3 SUPPLY EQUIPMENT INLET NODE,CONTROLLER:OUTDOORAIR,PSZ_1:3_OA_CONTROLLER,Sensor,1
 Non-Parent Node Connection,PSZ_1:4_OA-PSZ_1:4_COOLCNODE,CONTROLLER:OUTDOORAIR,PSZ_1:4_OA_CONTROLLER,Sensor,1
 Non-Parent Node Connection,PSZ_1:4_OAINLET NODE,CONTROLLER:OUTDOORAIR,PSZ_1:4_OA_CONTROLLER,Actuator,1
 Non-Parent Node Connection,PSZ_1:4_OARELIEF NODE,CONTROLLER:OUTDOORAIR,PSZ_1:4_OA_CONTROLLER,Actuator,1
 Non-Parent Node Connection,PSZ_1:4 SUPPLY EQUIPMENT INLET NODE,CONTROLLER:OUTDOORAIR,PSZ_1:4_OA_CONTROLLER,Sensor,1
 Non-Parent Node Connection,PSZ_1:5_OA-PSZ_1:5_COOLCNODE,CONTROLLER:OUTDOORAIR,PSZ_1:5_OA_CONTROLLER,Sensor,1
 Non-Parent Node Connection,PSZ_1:5_OAINLET NODE,CONTROLLER:OUTDOORAIR,PSZ_1:5_OA_CONTROLLER,Actuator,1
 Non-Parent Node Connection,PSZ_1:5_OARELIEF NODE,CONTROLLER:OUTDOORAIR,PSZ_1:5_OA_CONTROLLER,Actuator,1
 Non-Parent Node Connection,PSZ_1:5 SUPPLY EQUIPMENT INLET NODE,CONTROLLER:OUTDOORAIR,PSZ_1:5_OA_CONTROLLER,Sensor,1
 Non-Parent Node Connection,PSZ_2:1_OA-PSZ_2:1_COOLCNODE,CONTROLLER:OUTDOORAIR,PSZ_2:1_OA_CONTROLLER,Sensor,1
 Non-Parent Node Connection,PSZ_2:1_OAINLET NODE,CONTROLLER:OUTDOORAIR,PSZ_2:1_OA_CONTROLLER,Actuator,1
 Non-Parent Node Connection,PSZ_2:1_OARELIEF NODE,CONTROLLER:OUTDOORAIR,PSZ_2:1_OA_CONTROLLER,Actuator,1
 Non-Parent Node Connection,PSZ_2:1 SUPPLY EQUIPMENT INLET NODE,CONTROLLER:OUTDOORAIR,PSZ_2:1_OA_CONTROLLER,Sensor,1
 Non-Parent Node Connection,PSZ_2:2_OA-PSZ_2:2_COOLCNODE,CONTROLLER:OUTDOORAIR,PSZ_2:2_OA_CONTROLLER,Sensor,1
 Non-Parent Node Connection,PSZ_2:2_OAINLET NODE,CONTROLLER:OUTDOORAIR,PSZ_2:2_OA_CONTROLLER,Actuator,1
 Non-Parent Node Connection,PSZ_2:2_OARELIEF NODE,CONTROLLER:OUTDOORAIR,PSZ_2:2_OA_CONTROLLER,Actuator,1
 Non-Parent Node Connection,PSZ_2:2 SUPPLY EQUIPMENT INLET NODE,CONTROLLER:OUTDOORAIR,PSZ_2:2_OA_CONTROLLER,Sensor,1
 Non-Parent Node Connection,PSZ_2:3_OA-PSZ_2:3_COOLCNODE,CONTROLLER:OUTDOORAIR,PSZ_2:3_OA_CONTROLLER,Sensor,1
 Non-Parent Node Connection,PSZ_2:3_OAINLET NODE,CONTROLLER:OUTDOORAIR,PSZ_2:3_OA_CONTROLLER,Actuator,1
 Non-Parent Node Connection,PSZ_2:3_OARELIEF NODE,CONTROLLER:OUTDOORAIR,PSZ_2:3_OA_CONTROLLER,Actuator,1
 Non-Parent Node Connection,PSZ_2:3 SUPPLY EQUIPMENT INLET NODE,CONTROLLER:OUTDOORAIR,PSZ_2:3_OA_CONTROLLER,Sensor,1
 Non-Parent Node Connection,PSZ_2:4_OA-PSZ_2:4_COOLCNODE,CONTROLLER:OUTDOORAIR,PSZ_2:4_OA_CONTROLLER,Sensor,1
 Non-Parent Node Connection,PSZ_2:4_OAINLET NODE,CONTROLLER:OUTDOORAIR,PSZ_2:4_OA_CONTROLLER,Actuator,1
 Non-Parent Node Connection,PSZ_2:4_OARELIEF NODE,CONTROLLER:OUTDOORAIR,PSZ_2:4_OA_CONTROLLER,Actuator,1
 Non-Parent Node Connection,PSZ_2:4 SUPPLY EQUIPMENT INLET NODE,CONTROLLER:OUTDOORAIR,PSZ_2:4_OA_CONTROLLER,Sensor,1
 Non-Parent Node Connection,PSZ_2:5_OA-PSZ_2:5_COOLCNODE,CONTROLLER:OUTDOORAIR,PSZ_2:5_OA_CONTROLLER,Sensor,1
 Non-Parent Node Connection,PSZ_2:5_OAINLET NODE,CONTROLLER:OUTDOORAIR,PSZ_2:5_OA_CONTROLLER,Actuator,1
 Non-Parent Node Connection,PSZ_2:5_OARELIEF NODE,CONTROLLER:OUTDOORAIR,PSZ_2:5_OA_CONTROLLER,Actuator,1
 Non-Parent Node Connection,PSZ_2:5 SUPPLY EQUIPMENT INLET NODE,CONTROLLER:OUTDOORAIR,PSZ_2:5_OA_CONTROLLER,Sensor,1
 Non-Parent Node Connection,PSZ_3:1_OA-PSZ_3:1_COOLCNODE,CONTROLLER:OUTDOORAIR,PSZ_3:1_OA_CONTROLLER,Sensor,1
 Non-Parent Node Connection,PSZ_3:1_OAINLET NODE,CONTROLLER:OUTDOORAIR,PSZ_3:1_OA_CONTROLLER,Actuator,1
 Non-Parent Node Connection,PSZ_3:1_OARELIEF NODE,CONTROLLER:OUTDOORAIR,PSZ_3:1_OA_CONTROLLER,Actuator,1
 Non-Parent Node Connection,PSZ_3:1 SUPPLY EQUIPMENT INLET NODE,CONTROLLER:OUTDOORAIR,PSZ_3:1_OA_CONTROLLER,Sensor,1
 Non-Parent Node Connection,PSZ_3:2_OA-PSZ_3:2_COOLCNODE,CONTROLLER:OUTDOORAIR,PSZ_3:2_OA_CONTROLLER,Sensor,1
 Non-Parent Node Connection,PSZ_3:2_OAINLET NODE,CONTROLLER:OUTDOORAIR,PSZ_3:2_OA_CONTROLLER,Actuator,1
 Non-Parent Node Connection,PSZ_3:2_OARELIEF NODE,CONTROLLER:OUTDOORAIR,PSZ_3:2_OA_CONTROLLER,Actuator,1
 Non-Parent Node Connection,PSZ_3:2 SUPPLY EQUIPMENT INLET NODE,CONTROLLER:OUTDOORAIR,PSZ_3:2_OA_CONTROLLER,Sensor,1
 Non-Parent Node Connection,PSZ_3:3_OA-PSZ_3:3_COOLCNODE,CONTROLLER:OUTDOORAIR,PSZ_3:3_OA_CONTROLLER,Sensor,1
 Non-Parent Node Connection,PSZ_3:3_OAINLET NODE,CONTROLLER:OUTDOORAIR,PSZ_3:3_OA_CONTROLLER,Actuator,1
 Non-Parent Node Connection,PSZ_3:3_OARELIEF NODE,CONTROLLER:OUTDOORAIR,PSZ_3:3_OA_CONTROLLER,Actuator,1
 Non-Parent Node Connection,PSZ_3:3 SUPPLY EQUIPMENT INLET NODE,CONTROLLER:OUTDOORAIR,PSZ_3:3_OA_CONTROLLER,Sensor,1
 Non-Parent Node Connection,PSZ_3:4_OA-PSZ_3:4_COOLCNODE,CONTROLLER:OUTDOORAIR,PSZ_3:4_OA_CONTROLLER,Sensor,1
 Non-Parent Node Connection,PSZ_3:4_OAINLET NODE,CONTROLLER:OUTDOORAIR,PSZ_3:4_OA_CONTROLLER,Actuator,1
 Non-Parent Node Connection,PSZ_3:4_OARELIEF NODE,CONTROLLER:OUTDOORAIR,PSZ_3:4_OA_CONTROLLER,Actuator,1
 Non-Parent Node Connection,PSZ_3:4 SUPPLY EQUIPMENT INLET NODE,CONTROLLER:OUTDOORAIR,PSZ_3:4_OA_CONTROLLER,Sensor,1
 Non-Parent Node Connection,PSZ_3:5_OA-PSZ_3:5_COOLCNODE,CONTROLLER:OUTDOORAIR,PSZ_3:5_OA_CONTROLLER,Sensor,1
 Non-Parent Node Connection,PSZ_3:5_OAINLET NODE,CONTROLLER:OUTDOORAIR,PSZ_3:5_OA_CONTROLLER,Actuator,1
 Non-Parent Node Connection,PSZ_3:5_OARELIEF NODE,CONTROLLER:OUTDOORAIR,PSZ_3:5_OA_CONTROLLER,Actuator,1
 Non-Parent Node Connection,PSZ_3:5 SUPPLY EQUIPMENT INLET NODE,CONTROLLER:OUTDOORAIR,PSZ_3:5_OA_CONTROLLER,Sensor,1
 Non-Parent Node Connection,PSZ_1:1_OA-PSZ_1:1_COOLCNODE,COIL:COOLING:DX:TWOSPEED,PSZ_1:1_COOLC DXCOIL,Inlet,1
 Non-Parent Node Connection,PSZ_1:1_COOLC-PSZ_1:1_HEATCNODE,COIL:COOLING:DX:TWOSPEED,PSZ_1:1_COOLC DXCOIL,Outlet,1
 Non-Parent Node Connection,PSZ_1:2_OA-PSZ_1:2_COOLCNODE,COIL:COOLING:DX:TWOSPEED,PSZ_1:2_COOLC DXCOIL,Inlet,1
 Non-Parent Node Connection,PSZ_1:2_COOLC-PSZ_1:2_HEATCNODE,COIL:COOLING:DX:TWOSPEED,PSZ_1:2_COOLC DXCOIL,Outlet,1
 Non-Parent Node Connection,PSZ_1:3_OA-PSZ_1:3_COOLCNODE,COIL:COOLING:DX:TWOSPEED,PSZ_1:3_COOLC DXCOIL,Inlet,1
 Non-Parent Node Connection,PSZ_1:3_COOLC-PSZ_1:3_HEATCNODE,COIL:COOLING:DX:TWOSPEED,PSZ_1:3_COOLC DXCOIL,Outlet,1
 Non-Parent Node Connection,PSZ_1:4_OA-PSZ_1:4_COOLCNODE,COIL:COOLING:DX:TWOSPEED,PSZ_1:4_COOLC DXCOIL,Inlet,1
 Non-Parent Node Connection,PSZ_1:4_COOLC-PSZ_1:4_HEATCNODE,COIL:COOLING:DX:TWOSPEED,PSZ_1:4_COOLC DXCOIL,Outlet,1
 Non-Parent Node Connection,PSZ_1:5_OA-PSZ_1:5_COOLCNODE,COIL:COOLING:DX:TWOSPEED,PSZ_1:5_COOLC DXCOIL,Inlet,1
 Non-Parent Node Connection,PSZ_1:5_COOLC-PSZ_1:5_HEATCNODE,COIL:COOLING:DX:TWOSPEED,PSZ_1:5_COOLC DXCOIL,Outlet,1
 Non-Parent Node Connection,PSZ_2:1_OA-PSZ_2:1_COOLCNODE,COIL:COOLING:DX:TWOSPEED,PSZ_2:1_COOLC DXCOIL,Inlet,1
 Non-Parent Node Connection,PSZ_2:1_COOLC-PSZ_2:1_HEATCNODE,COIL:COOLING:DX:TWOSPEED,PSZ_2:1_COOLC DXCOIL,Outlet,1
 Non-Parent Node Connection,PSZ_2:2_OA-PSZ_2:2_COOLCNODE,COIL:COOLING:DX:TWOSPEED,PSZ_2:2_COOLC DXCOIL,Inlet,1
 Non-Parent Node Connection,PSZ_2:2_COOLC-PSZ_2:2_HEATCNODE,COIL:COOLING:DX:TWOSPEED,PSZ_2:2_COOLC DXCOIL,Outlet,1
 Non-Parent Node Connection,PSZ_2:3_OA-PSZ_2:3_COOLCNODE,COIL:COOLING:DX:TWOSPEED,PSZ_2:3_COOLC DXCOIL,Inlet,1
 Non-Parent Node Connection,PSZ_2:3_COOLC-PSZ_2:3_HEATCNODE,COIL:COOLING:DX:TWOSPEED,PSZ_2:3_COOLC DXCOIL,Outlet,1
 Non-Parent Node Connection,PSZ_2:4_OA-PSZ_2:4_COOLCNODE,COIL:COOLING:DX:TWOSPEED,PSZ_2:4_COOLC DXCOIL,Inlet,1
 Non-Parent Node Connection,PSZ_2:4_COOLC-PSZ_2:4_HEATCNODE,COIL:COOLING:DX:TWOSPEED,PSZ_2:4_COOLC DXCOIL,Outlet,1
 Non-Parent Node Connection,PSZ_2:5_OA-PSZ_2:5_COOLCNODE,COIL:COOLING:DX:TWOSPEED,PSZ_2:5_COOLC DXCOIL,Inlet,1
 Non-Parent Node Connection,PSZ_2:5_COOLC-PSZ_2:5_HEATCNODE,COIL:COOLING:DX:TWOSPEED,PSZ_2:5_COOLC DXCOIL,Outlet,1
 Non-Parent Node Connection,PSZ_3:1_OA-PSZ_3:1_COOLCNODE,COIL:COOLING:DX:TWOSPEED,PSZ_3:1_COOLC DXCOIL,Inlet,1
 Non-Parent Node Connection,PSZ_3:1_COOLC-PSZ_3:1_HEATCNODE,COIL:COOLING:DX:TWOSPEED,PSZ_3:1_COOLC DXCOIL,Outlet,1
 Non-Parent Node Connection,PSZ_3:2_OA-PSZ_3:2_COOLCNODE,COIL:COOLING:DX:TWOSPEED,PSZ_3:2_COOLC DXCOIL,Inlet,1
 Non-Parent Node Connection,PSZ_3:2_COOLC-PSZ_3:2_HEATCNODE,COIL:COOLING:DX:TWOSPEED,PSZ_3:2_COOLC DXCOIL,Outlet,1
 Non-Parent Node Connection,PSZ_3:3_OA-PSZ_3:3_COOLCNODE,COIL:COOLING:DX:TWOSPEED,PSZ_3:3_COOLC DXCOIL,Inlet,1
 Non-Parent Node Connection,PSZ_3:3_COOLC-PSZ_3:3_HEATCNODE,COIL:COOLING:DX:TWOSPEED,PSZ_3:3_COOLC DXCOIL,Outlet,1
 Non-Parent Node Connection,PSZ_3:4_OA-PSZ_3:4_COOLCNODE,COIL:COOLING:DX:TWOSPEED,PSZ_3:4_COOLC DXCOIL,Inlet,1
 Non-Parent Node Connection,PSZ_3:4_COOLC-PSZ_3:4_HEATCNODE,COIL:COOLING:DX:TWOSPEED,PSZ_3:4_COOLC DXCOIL,Outlet,1
 Non-Parent Node Connection,PSZ_3:5_OA-PSZ_3:5_COOLCNODE,COIL:COOLING:DX:TWOSPEED,PSZ_3:5_COOLC DXCOIL,Inlet,1
 Non-Parent Node Connection,PSZ_3:5_COOLC-PSZ_3:5_HEATCNODE,COIL:COOLING:DX:TWOSPEED,PSZ_3:5_COOLC DXCOIL,Outlet,1
 Non-Parent Node Connection,PSZ_1:1_COOLC-PSZ_1:1_HEATCNODE,COIL:HEATING:FUEL,PSZ_1:1_HEATC,Inlet,1
 Non-Parent Node Connection,PSZ_1:1_HEATC-PSZ_1:1_FANNODE,COIL:HEATING:FUEL,PSZ_1:1_HEATC,Outlet,1
 Non-Parent Node Connection,PSZ_1:1_HEATC-PSZ_1:1_FANNODE,COIL:HEATING:FUEL,PSZ_1:1_HEATC,Sensor,1
 Non-Parent Node Connection,PSZ_1:2_COOLC-PSZ_1:2_HEATCNODE,COIL:HEATING:FUEL,PSZ_1:2_HEATC,Inlet,1
 Non-Parent Node Connection,PSZ_1:2_HEATC-PSZ_1:2_FANNODE,COIL:HEATING:FUEL,PSZ_1:2_HEATC,Outlet,1
 Non-Parent Node Connection,PSZ_1:2_HEATC-PSZ_1:2_FANNODE,COIL:HEATING:FUEL,PSZ_1:2_HEATC,Sensor,1
 Non-Parent Node Connection,PSZ_1:3_COOLC-PSZ_1:3_HEATCNODE,COIL:HEATING:FUEL,PSZ_1:3_HEATC,Inlet,1
 Non-Parent Node Connection,PSZ_1:3_HEATC-PSZ_1:3_FANNODE,COIL:HEATING:FUEL,PSZ_1:3_HEATC,Outlet,1
 Non-Parent Node Connection,PSZ_1:3_HEATC-PSZ_1:3_FANNODE,COIL:HEATING:FUEL,PSZ_1:3_HEATC,Sensor,1
 Non-Parent Node Connection,PSZ_1:4_COOLC-PSZ_1:4_HEATCNODE,COIL:HEATING:FUEL,PSZ_1:4_HEATC,Inlet,1
 Non-Parent Node Connection,PSZ_1:4_HEATC-PSZ_1:4_FANNODE,COIL:HEATING:FUEL,PSZ_1:4_HEATC,Outlet,1
 Non-Parent Node Connection,PSZ_1:4_HEATC-PSZ_1:4_FANNODE,COIL:HEATING:FUEL,PSZ_1:4_HEATC,Sensor,1
 Non-Parent Node Connection,PSZ_1:5_COOLC-PSZ_1:5_HEATCNODE,COIL:HEATING:FUEL,PSZ_1:5_HEATC,Inlet,1
 Non-Parent Node Connection,PSZ_1:5_HEATC-PSZ_1:5_FANNODE,COIL:HEATING:FUEL,PSZ_1:5_HEATC,Outlet,1
 Non-Parent Node Connection,PSZ_1:5_HEATC-PSZ_1:5_FANNODE,COIL:HEATING:FUEL,PSZ_1:5_HEATC,Sensor,1
 Non-Parent Node Connection,PSZ_2:1_COOLC-PSZ_2:1_HEATCNODE,COIL:HEATING:FUEL,PSZ_2:1_HEATC,Inlet,1
 Non-Parent Node Connection,PSZ_2:1_HEATC-PSZ_2:1_FANNODE,COIL:HEATING:FUEL,PSZ_2:1_HEATC,Outlet,1
 Non-Parent Node Connection,PSZ_2:1_HEATC-PSZ_2:1_FANNODE,COIL:HEATING:FUEL,PSZ_2:1_HEATC,Sensor,1
 Non-Parent Node Connection,PSZ_2:2_COOLC-PSZ_2:2_HEATCNODE,COIL:HEATING:FUEL,PSZ_2:2_HEATC,Inlet,1
 Non-Parent Node Connection,PSZ_2:2_HEATC-PSZ_2:2_FANNODE,COIL:HEATING:FUEL,PSZ_2:2_HEATC,Outlet,1
 Non-Parent Node Connection,PSZ_2:2_HEATC-PSZ_2:2_FANNODE,COIL:HEATING:FUEL,PSZ_2:2_HEATC,Sensor,1
 Non-Parent Node Connection,PSZ_2:3_COOLC-PSZ_2:3_HEATCNODE,COIL:HEATING:FUEL,PSZ_2:3_HEATC,Inlet,1
 Non-Parent Node Connection,PSZ_2:3_HEATC-PSZ_2:3_FANNODE,COIL:HEATING:FUEL,PSZ_2:3_HEATC,Outlet,1
 Non-Parent Node Connection,PSZ_2:3_HEATC-PSZ_2:3_FANNODE,COIL:HEATING:FUEL,PSZ_2:3_HEATC,Sensor,1
 Non-Parent Node Connection,PSZ_2:4_COOLC-PSZ_2:4_HEATCNODE,COIL:HEATING:FUEL,PSZ_2:4_HEATC,Inlet,1
 Non-Parent Node Connection,PSZ_2:4_HEATC-PSZ_2:4_FANNODE,COIL:HEATING:FUEL,PSZ_2:4_HEATC,Outlet,1
 Non-Parent Node Connection,PSZ_2:4_HEATC-PSZ_2:4_FANNODE,COIL:HEATING:FUEL,PSZ_2:4_HEATC,Sensor,1
 Non-Parent Node Connection,PSZ_2:5_COOLC-PSZ_2:5_HEATCNODE,COIL:HEATING:FUEL,PSZ_2:5_HEATC,Inlet,1
 Non-Parent Node Connection,PSZ_2:5_HEATC-PSZ_2:5_FANNODE,COIL:HEATING:FUEL,PSZ_2:5_HEATC,Outlet,1
 Non-Parent Node Connection,PSZ_2:5_HEATC-PSZ_2:5_FANNODE,COIL:HEATING:FUEL,PSZ_2:5_HEATC,Sensor,1
 Non-Parent Node Connection,PSZ_3:1_COOLC-PSZ_3:1_HEATCNODE,COIL:HEATING:FUEL,PSZ_3:1_HEATC,Inlet,1
 Non-Parent Node Connection,PSZ_3:1_HEATC-PSZ_3:1_FANNODE,COIL:HEATING:FUEL,PSZ_3:1_HEATC,Outlet,1
 Non-Parent Node Connection,PSZ_3:1_HEATC-PSZ_3:1_FANNODE,COIL:HEATING:FUEL,PSZ_3:1_HEATC,Sensor,1
 Non-Parent Node Connection,PSZ_3:2_COOLC-PSZ_3:2_HEATCNODE,COIL:HEATING:FUEL,PSZ_3:2_HEATC,Inlet,1
 Non-Parent Node Connection,PSZ_3:2_HEATC-PSZ_3:2_FANNODE,COIL:HEATING:FUEL,PSZ_3:2_HEATC,Outlet,1
 Non-Parent Node Connection,PSZ_3:2_HEATC-PSZ_3:2_FANNODE,COIL:HEATING:FUEL,PSZ_3:2_HEATC,Sensor,1
 Non-Parent Node Connection,PSZ_3:3_COOLC-PSZ_3:3_HEATCNODE,COIL:HEATING:FUEL,PSZ_3:3_HEATC,Inlet,1
 Non-Parent Node Connection,PSZ_3:3_HEATC-PSZ_3:3_FANNODE,COIL:HEATING:FUEL,PSZ_3:3_HEATC,Outlet,1
 Non-Parent Node Connection,PSZ_3:3_HEATC-PSZ_3:3_FANNODE,COIL:HEATING:FUEL,PSZ_3:3_HEATC,Sensor,1
 Non-Parent Node Connection,PSZ_3:4_COOLC-PSZ_3:4_HEATCNODE,COIL:HEATING:FUEL,PSZ_3:4_HEATC,Inlet,1
 Non-Parent Node Connection,PSZ_3:4_HEATC-PSZ_3:4_FANNODE,COIL:HEATING:FUEL,PSZ_3:4_HEATC,Outlet,1
 Non-Parent Node Connection,PSZ_3:4_HEATC-PSZ_3:4_FANNODE,COIL:HEATING:FUEL,PSZ_3:4_HEATC,Sensor,1
 Non-Parent Node Connection,PSZ_3:5_COOLC-PSZ_3:5_HEATCNODE,COIL:HEATING:FUEL,PSZ_3:5_HEATC,Inlet,1
 Non-Parent Node Connection,PSZ_3:5_HEATC-PSZ_3:5_FANNODE,COIL:HEATING:FUEL,PSZ_3:5_HEATC,Outlet,1
 Non-Parent Node Connection,PSZ_3:5_HEATC-PSZ_3:5_FANNODE,COIL:HEATING:FUEL,PSZ_3:5_HEATC,Sensor,1
 Non-Parent Node Connection,SWHSYS1 SUPPLY INLET NODE,PUMP:CONSTANTSPEED,SWHSYS1 PUMP,Inlet,1
 Non-Parent Node Connection,SWHSYS1 PUMP-SWHSYS1 WATER HEATERNODEVIACONNECTOR,PUMP:CONSTANTSPEED,SWHSYS1 PUMP,Outlet,1
