Program Version,EnergyPlus, Version 9.2.0-921312fa1d, YMD=2020.12.22 18:42
! <Version>, Version ID
 Version, 9.2
! <Timesteps per Hour>, #TimeSteps, Minutes per TimeStep {minutes}
 Timesteps per Hour,  4, 15
! <System Convergence Limits>, Minimum System TimeStep {minutes}, Max HVAC Iterations, Minimum Plant Iterations, Maximum Plant Iterations
 System Convergence Limits, 2, 25, 2, 8
! <Simulation Control>, Do Zone Sizing, Do System Sizing, Do Plant Sizing, Do Design Days, Do Weather Simulation, Do HVAC Sizing Simulation
 Simulation Control, Yes, Yes, Yes, No, Yes, No
! <Output Reporting Tolerances>, Tolerance for Time Heating Setpoint Not Met, Tolerance for Zone Cooling Setpoint Not Met Time
 Output Reporting Tolerances, 0.556, 0.556, 
! <Site:GroundTemperature:BuildingSurface>,Jan{C},Feb{C},Mar{C},Apr{C},May{C},Jun{C},Jul{C},Aug{C},Sep{C},Oct{C},Nov{C},Dec{C}
 Site:GroundTemperature:BuildingSurface,  19.53,  19.50,  19.54,  19.60,  20.00,  21.64,  22.23,  22.38,  21.45,  20.12,  19.80,  19.63
! <Site:GroundTemperature:FCfactorMethod>,Jan{C},Feb{C},Mar{C},Apr{C},May{C},Jun{C},Jul{C},Aug{C},Sep{C},Oct{C},Nov{C},Dec{C}
 Site:GroundTemperature:FCfactorMethod,  -1.89,  -3.06,  -0.99,   2.23,  10.68,  17.20,  21.60,  22.94,  20.66,  15.60,   8.83,   2.56
! <Site:GroundTemperature:Shallow>,Jan{C},Feb{C},Mar{C},Apr{C},May{C},Jun{C},Jul{C},Aug{C},Sep{C},Oct{C},Nov{C},Dec{C}
 Site:GroundTemperature:Shallow,  13.00,  13.00,  13.00,  13.00,  13.00,  13.00,  13.00,  13.00,  13.00,  13.00,  13.00,  13.00
! <Site:GroundTemperature:Deep>,Jan{C},Feb{C},Mar{C},Apr{C},May{C},Jun{C},Jul{C},Aug{C},Sep{C},Oct{C},Nov{C},Dec{C}
 Site:GroundTemperature:Deep,  16.00,  16.00,  16.00,  16.00,  16.00,  16.00,  16.00,  16.00,  16.00,  16.00,  16.00,  16.00
! <Site:GroundReflectance>,Jan{dimensionless},Feb{dimensionless},Mar{dimensionless},Apr{dimensionless},May{dimensionless},Jun{dimensionless},Jul{dimensionless},Aug{dimensionless},Sep{dimensionless},Oct{dimensionless},Nov{dimensionless},Dec{dimensionless}
 Site:GroundReflectance,  0.20,  0.20,  0.20,  0.20,  0.20,  0.20,  0.20,  0.20,  0.20,  0.20,  0.20,  0.20
! <Site:GroundReflectance:SnowModifier>, Normal, Daylighting {dimensionless}
 Site:GroundReflectance:SnowModifier,   1.000,   1.000
! <Site:GroundReflectance:Snow>,Jan{dimensionless},Feb{dimensionless},Mar{dimensionless},Apr{dimensionless},May{dimensionless},Jun{dimensionless},Jul{dimensionless},Aug{dimensionless},Sep{dimensionless},Oct{dimensionless},Nov{dimensionless},Dec{dimensionless}
 Site:GroundReflectance:Snow,  0.20,  0.20,  0.20,  0.20,  0.20,  0.20,  0.20,  0.20,  0.20,  0.20,  0.20,  0.20
! <Site:GroundReflectance:Snow:Daylighting>,Jan{dimensionless},Feb{dimensionless},Mar{dimensionless},Apr{dimensionless},May{dimensionless},Jun{dimensionless},Jul{dimensionless},Aug{dimensionless},Sep{dimensionless},Oct{dimensionless},Nov{dimensionless},Dec{dimensionless}
 Site:GroundReflectance:Snow:Daylighting,  0.20,  0.20,  0.20,  0.20,  0.20,  0.20,  0.20,  0.20,  0.20,  0.20,  0.20,  0.20
! <Environment:Weather Station>,Wind Sensor Height Above Ground {m},Wind Speed Profile Exponent {},Wind Speed Profile Boundary Layer Thickness {m},Air Temperature Sensor Height Above Ground {m},Wind Speed Modifier Coefficient-Internal,Temperature Modifier Coefficient-Internal
Environment:Weather Station,10.000,0.140,270.000,1.500,1.586,9.750E-003
! <Site:Location>, Location Name, Latitude {N+/S- Deg}, Longitude {E+/W- Deg},  Time Zone Number {GMT+/-}, Elevation {m},  Standard Pressure at Elevation {Pa}, Standard RhoAir at Elevation
Site:Location,Chicago Ohare Intl Ap IL USA TMY3 WMO#=725300,41.98,-87.92,-6.00,201.00,98934,1.1759
! <Site Water Mains Temperature Information>,Calculation Method{},Water Mains Temperature Schedule Name{},Annual Average Outdoor Air Temperature{C},Maximum Difference In Monthly Average Outdoor Air Temperatures{deltaC},Fixed Default Water Mains Temperature{C}
Site Water Mains Temperature Information,Correlation,NA,9.69,28.10,NA
! Schedule Details Report=Hourly =====================
! <ScheduleType>,Name,Limited? {Yes/No},Minimum,Maximum,Continuous? {Yes/No - Discrete}
! <DaySchedule>,Name,ScheduleType,Interpolated {Yes/No},Time (HH:MM) =>,01:00,02:00,03:00,04:00,05:00,06:00,07:00,08:00,09:00,10:00,11:00,12:00,13:00,14:00,15:00,16:00,17:00,18:00,19:00,20:00,21:00,22:00,23:00,24:00
! <WeekSchedule>,Name,Sunday,Monday,Tuesday,Wednesday,Thursday,Friday,Saturday,Holiday,SummerDesignDay,WinterDesignDay,CustomDay1,CustomDay2
! <Schedule>,Name,ScheduleType,{Until Date,WeekSchedule}** Repeated until Dec 31
ScheduleTypeLimits,ANY NUMBER,No,N/A,N/A,N/A
ScheduleTypeLimits,FRACTION,Average,0.00,1.00,Yes
ScheduleTypeLimits,TEMPERATURE,Average,-60.00,200.00,Yes
ScheduleTypeLimits,ON/OFF,Average,0,1,No
ScheduleTypeLimits,CONTROL TYPE,Average,0,4,No
ScheduleTypeLimits,HUMIDITY,Average,10.00,90.00,Yes
ScheduleTypeLimits,NUMBER,No,N/A,N/A,N/A
DaySchedule,ALWAYS_ON_dy_1,ON/OFF,No,Values:,1.00,1.00,1.00,1.00,1.00,1.00,1.00,1.00,1.00,1.00,1.00,1.00,1.00,1.00,1.00,1.00,1.00,1.00,1.00,1.00,1.00,1.00,1.00,1.00
DaySchedule,KITCHEN_EXHAUST_SCH_dy_1,FRACTION,No,Values:,0.00,0.00,0.00,0.00,0.00,1.00,1.00,1.00,1.00,1.00,1.00,1.00,1.00,1.00,1.00,1.00,1.00,1.00,0.00,0.00,0.00,0.00,0.00,0.00
DaySchedule,KITCHEN_EXHAUST_SCH_dy_2,FRACTION,No,Values:,0.00,0.00,0.00,0.00,0.00,1.00,1.00,1.00,1.00,1.00,1.00,1.00,1.00,1.00,1.00,1.00,1.00,1.00,0.00,0.00,0.00,0.00,0.00,0.00
DaySchedule,KITCHEN_EXHAUST_SCH_dy_3,FRACTION,No,Values:,0.00,0.00,0.00,0.00,0.00,0.00,0.00,1.00,1.00,1.00,1.00,1.00,1.00,1.00,1.00,0.00,0.00,0.00,0.00,0.00,0.00,0.00,0.00,0.00
DaySchedule,KITCHEN_EXHAUST_SCH_dy_4,FRACTION,No,Values:,0.00,0.00,0.00,0.00,0.00,0.00,0.00,1.00,1.00,1.00,1.00,1.00,1.00,1.00,1.00,0.00,0.00,0.00,0.00,0.00,0.00,0.00,0.00,0.00
DaySchedule,KITCHEN_EXHAUST_SCH_dy_5,FRACTION,No,Values:,0.00,0.00,0.00,0.00,0.00,0.00,0.00,0.00,0.00,0.00,0.00,0.00,0.00,0.00,0.00,0.00,0.00,0.00,0.00,0.00,0.00,0.00,0.00,0.00
DaySchedule,ADMIN_EQUIP_SCH_dy_1,FRACTION,No,Values:,0.30,0.30,0.30,0.30,0.50,0.50,1.00,1.00,1.00,1.00,1.00,1.00,1.00,1.00,1.00,1.00,1.00,1.00,0.50,0.50,0.30,0.30,0.30,0.30
DaySchedule,ADMIN_EQUIP_SCH_dy_2,FRACTION,No,Values:,0.30,0.30,0.30,0.30,0.50,0.50,1.00,1.00,1.00,1.00,1.00,1.00,1.00,1.00,1.00,1.00,1.00,1.00,0.50,0.50,0.30,0.30,0.30,0.30
DaySchedule,ADMIN_EQUIP_SCH_dy_3,FRACTION,No,Values:,0.30,0.30,0.30,0.30,0.30,0.30,0.30,0.30,0.30,0.30,0.30,0.30,0.30,0.30,0.30,0.30,0.30,0.30,0.30,0.30,0.30,0.30,0.30,0.30
DaySchedule,ADMIN_EQUIP_SCH_dy_4,FRACTION,No,Values:,0.30,0.30,0.30,0.30,0.30,0.30,0.30,0.50,0.50,0.80,0.80,0.80,0.80,0.80,0.80,0.50,0.50,0.50,0.50,0.50,0.30,0.30,0.30,0.30
DaySchedule,ADMIN_EQUIP_SCH_dy_5,FRACTION,No,Values:,0.30,0.30,0.30,0.30,0.30,0.30,0.30,0.30,0.50,0.50,0.50,0.50,0.50,0.50,0.50,0.50,0.50,0.30,0.30,0.30,0.30,0.30,0.30,0.30
DaySchedule,ADMIN_LIGHT_SCH_dy_1,FRACTION,No,Values:,0.10,0.10,0.10,0.10,0.30,0.30,0.60,0.90,0.90,0.90,0.90,0.90,0.90,0.90,0.90,0.90,0.90,0.90,0.60,0.60,0.30,0.30,0.10,0.10
DaySchedule,ADMIN_LIGHT_SCH_dy_2,FRACTION,No,Values:,0.10,0.10,0.10,0.10,0.30,0.30,0.60,0.90,0.90,0.90,0.90,0.90,0.90,0.90,0.90,0.90,0.90,0.90,0.60,0.60,0.30,0.30,0.10,0.10
DaySchedule,ADMIN_LIGHT_SCH_dy_3,FRACTION,No,Values:,0.10,0.10,0.10,0.10,0.10,0.10,0.10,0.30,0.30,0.40,0.40,0.40,0.40,0.40,0.40,0.30,0.30,0.30,0.30,0.30,0.10,0.10,0.10,0.10
DaySchedule,ADMIN_LIGHT_SCH_dy_4,FRACTION,No,Values:,0.10,0.10,0.10,0.10,0.10,0.10,0.10,0.30,0.30,0.40,0.40,0.40,0.40,0.40,0.40,0.30,0.30,0.30,0.30,0.30,0.10,0.10,0.10,0.10
DaySchedule,ADMIN_LIGHT_SCH_dy_5,FRACTION,No,Values:,5.00E-002,5.00E-002,5.00E-002,5.00E-002,5.00E-002,5.00E-002,5.00E-002,5.00E-002,0.10,0.10,0.10,0.10,0.10,0.10,0.10,0.10,0.10,5.00E-002,5.00E-002,5.00E-002,5.00E-002,5.00E-002,5.00E-002,5.00E-002
DaySchedule,ADMIN_OCC_SCH_dy_1,FRACTION,No,Values:,5.00E-002,5.00E-002,5.00E-002,5.00E-002,0.20,0.20,0.50,0.90,0.90,0.90,0.90,0.90,0.90,0.90,0.90,0.90,0.90,0.90,0.50,0.50,0.20,0.20,5.00E-002,5.00E-002
DaySchedule,ADMIN_OCC_SCH_dy_2,FRACTION,No,Values:,5.00E-002,5.00E-002,5.00E-002,5.00E-002,0.20,0.20,0.50,0.90,0.90,0.90,0.90,0.90,0.90,0.90,0.90,0.90,0.90,0.90,0.50,0.50,0.20,0.20,5.00E-002,5.00E-002
DaySchedule,ADMIN_OCC_SCH_dy_3,FRACTION,No,Values:,5.00E-002,5.00E-002,5.00E-002,5.00E-002,5.00E-002,5.00E-002,5.00E-002,0.20,0.20,0.30,0.30,0.30,0.30,0.30,0.30,0.20,0.20,0.20,0.20,0.20,5.00E-002,5.00E-002,5.00E-002,5.00E-002
DaySchedule,ADMIN_OCC_SCH_dy_4,FRACTION,No,Values:,5.00E-002,5.00E-002,5.00E-002,5.00E-002,5.00E-002,5.00E-002,5.00E-002,0.20,0.20,0.30,0.30,0.30,0.30,0.30,0.30,0.20,0.20,0.20,0.20,0.20,5.00E-002,5.00E-002,5.00E-002,5.00E-002
DaySchedule,ADMIN_OCC_SCH_dy_5,FRACTION,No,Values:,0.00,0.00,0.00,0.00,0.00,0.00,0.00,0.00,5.00E-002,5.00E-002,5.00E-002,5.00E-002,5.00E-002,5.00E-002,5.00E-002,5.00E-002,5.00E-002,0.00,0.00,0.00,0.00,0.00,0.00,0.00
DaySchedule,BLDG_ELEVATORS_dy_1,FRACTION,No,Values:,0.20,0.20,0.20,0.20,0.20,0.20,0.20,0.50,0.75,1.00,1.00,1.00,0.75,1.00,1.00,1.00,1.00,1.00,0.52,0.52,0.52,0.28,0.20,0.20
DaySchedule,BLDG_ELEVATORS_dy_2,FRACTION,No,Values:,0.20,0.20,0.20,0.20,0.20,0.20,0.20,0.40,0.46,0.70,0.70,0.70,0.51,0.51,0.51,0.51,0.51,0.25,0.20,0.20,0.20,0.20,0.20,0.20
DaySchedule,BLDG_ELEVATORS_dy_3,FRACTION,No,Values:,0.20,0.20,0.20,0.20,0.20,0.20,0.20,0.20,0.40,0.40,0.40,0.40,0.40,0.40,0.40,0.40,0.20,0.20,0.20,0.20,0.20,0.20,0.20,0.20
DaySchedule,BLDG_LIGHT_SCH_dy_1,FRACTION,No,Values:,0.10,0.10,0.10,0.10,0.10,0.10,0.10,0.50,0.90,0.90,0.90,0.90,0.90,0.90,0.90,0.90,0.30,0.30,0.30,0.30,0.30,0.30,0.30,0.10
DaySchedule,BLDG_LIGHT_SCH_dy_2,FRACTION,No,Values:,1.00,1.00,1.00,1.00,1.00,1.00,1.00,1.00,1.00,1.00,1.00,1.00,1.00,1.00,1.00,1.00,1.00,1.00,1.00,1.00,1.00,1.00,1.00,1.00
DaySchedule,BLDG_LIGHT_SCH_dy_3,FRACTION,No,Values:,0.00,0.00,0.00,0.00,0.00,0.00,0.00,0.00,0.00,0.00,0.00,0.00,0.00,0.00,0.00,0.00,0.00,0.00,0.00,0.00,0.00,0.00,0.00,0.00
DaySchedule,BLDG_LIGHT_SCH_dy_4,FRACTION,No,Values:,0.10,0.10,0.10,0.10,0.10,0.10,0.10,0.20,0.40,0.40,0.40,0.40,0.40,0.40,0.40,0.40,0.40,0.40,0.10,0.10,0.10,0.10,0.10,0.10
DaySchedule,BLDG_LIGHT_SCH_dy_5,FRACTION,No,Values:,5.00E-002,5.00E-002,5.00E-002,5.00E-002,5.00E-002,5.00E-002,5.00E-002,5.00E-002,0.10,0.10,0.10,0.10,0.10,0.10,0.10,0.10,5.00E-002,5.00E-002,5.00E-002,5.00E-002,5.00E-002,5.00E-002,5.00E-002,5.00E-002
DaySchedule,CRITICAL_EQUIP_SCH_dy_1,FRACTION,No,Values:,0.50,0.50,0.50,0.50,0.50,0.50,1.00,1.00,1.00,1.00,1.00,1.00,1.00,1.00,1.00,1.00,1.00,1.00,0.80,0.80,0.50,0.50,0.50,0.50
DaySchedule,CRITICAL_EQUIP_SCH_dy_2,FRACTION,No,Values:,0.50,0.50,0.50,0.50,0.50,0.50,1.00,1.00,1.00,1.00,1.00,1.00,1.00,1.00,1.00,1.00,1.00,1.00,0.80,0.80,0.50,0.50,0.50,0.50
DaySchedule,CRITICAL_EQUIP_SCH_dy_3,FRACTION,No,Values:,0.30,0.30,0.30,0.30,0.30,0.30,0.30,0.30,0.30,0.30,0.30,0.30,0.30,0.30,0.30,0.30,0.30,0.30,0.30,0.30,0.30,0.30,0.30,0.30
DaySchedule,CRITICAL_EQUIP_SCH_dy_4,FRACTION,No,Values:,0.50,0.50,0.50,0.50,0.50,0.50,1.00,1.00,1.00,1.00,1.00,1.00,1.00,1.00,1.00,1.00,1.00,1.00,0.80,0.80,0.50,0.50,0.50,0.50
DaySchedule,CRITICAL_EQUIP_SCH_dy_5,FRACTION,No,Values:,0.50,0.50,0.50,0.50,0.50,0.50,1.00,1.00,1.00,1.00,1.00,1.00,1.00,1.00,1.00,1.00,1.00,1.00,0.80,0.80,0.50,0.50,0.50,0.50
DaySchedule,CRITICAL_LIGHT_SCH_dy_1,FRACTION,No,Values:,0.50,0.50,0.50,0.50,0.70,0.70,0.90,0.90,0.90,0.90,0.90,0.90,0.90,0.90,0.90,0.90,0.90,0.90,0.70,0.70,0.70,0.70,0.50,0.50
DaySchedule,CRITICAL_LIGHT_SCH_dy_2,FRACTION,No,Values:,0.50,0.50,0.50,0.50,0.70,0.70,0.90,0.90,0.90,0.90,0.90,0.90,0.90,0.90,0.90,0.90,0.90,0.90,0.70,0.70,0.70,0.70,0.50,0.50
DaySchedule,CRITICAL_LIGHT_SCH_dy_3,FRACTION,No,Values:,0.50,0.50,0.50,0.50,0.70,0.70,0.90,0.90,0.90,0.90,0.90,0.90,0.90,0.90,0.90,0.90,0.90,0.90,0.70,0.70,0.70,0.70,0.50,0.50
DaySchedule,CRITICAL_LIGHT_SCH_dy_4,FRACTION,No,Values:,0.50,0.50,0.50,0.50,0.70,0.70,0.90,0.90,0.90,0.90,0.90,0.90,0.90,0.90,0.90,0.90,0.90,0.90,0.70,0.70,0.70,0.70,0.50,0.50
DaySchedule,CRITICAL_LIGHT_SCH_dy_5,FRACTION,No,Values:,0.50,0.50,0.50,0.50,0.70,0.70,0.90,0.90,0.90,0.90,0.90,0.90,0.90,0.90,0.90,0.90,0.90,0.90,0.70,0.70,0.70,0.70,0.50,0.50
DaySchedule,CRITICAL_OCC_SCH_dy_1,FRACTION,No,Values:,0.40,0.40,0.40,0.40,0.65,0.65,0.90,0.90,0.90,0.90,0.90,0.90,0.90,0.90,0.90,0.90,0.90,0.90,0.65,0.65,0.65,0.65,0.40,0.40
DaySchedule,CRITICAL_OCC_SCH_dy_2,FRACTION,No,Values:,0.40,0.40,0.40,0.40,0.65,0.65,0.90,0.90,0.90,0.90,0.90,0.90,0.90,0.90,0.90,0.90,0.90,0.90,0.65,0.65,0.65,0.65,0.40,0.40
DaySchedule,CRITICAL_OCC_SCH_dy_3,FRACTION,No,Values:,0.40,0.40,0.40,0.40,0.65,0.65,0.90,0.90,0.90,0.90,0.90,0.90,0.90,0.90,0.90,0.90,0.90,0.90,0.65,0.65,0.65,0.65,0.40,0.40
DaySchedule,CRITICAL_OCC_SCH_dy_4,FRACTION,No,Values:,0.40,0.40,0.40,0.40,0.65,0.65,0.90,0.90,0.90,0.90,0.90,0.90,0.90,0.90,0.90,0.90,0.90,0.90,0.65,0.65,0.65,0.65,0.40,0.40
DaySchedule,CRITICAL_OCC_SCH_dy_5,FRACTION,No,Values:,0.40,0.40,0.40,0.40,0.65,0.65,0.90,0.90,0.90,0.90,0.90,0.90,0.90,0.90,0.90,0.90,0.90,0.90,0.65,0.65,0.65,0.65,0.40,0.40
DaySchedule,INFIL_QUARTER_ON_SCH_dy_1,FRACTION,No,Values:,0.25,0.25,0.25,0.25,0.25,0.25,0.25,0.25,0.25,0.25,0.25,0.25,0.25,0.25,0.25,0.25,0.25,0.25,0.25,0.25,0.25,0.25,0.25,0.25
DaySchedule,INFIL_QUARTER_ON_SCH_dy_2,FRACTION,No,Values:,0.25,0.25,0.25,0.25,0.25,0.25,0.25,0.25,0.25,0.25,0.25,0.25,0.25,0.25,0.25,0.25,0.25,0.25,0.25,0.25,0.25,0.25,0.25,0.25
DaySchedule,INFIL_QUARTER_ON_SCH_dy_3,FRACTION,No,Values:,1.00,1.00,1.00,1.00,1.00,1.00,1.00,1.00,1.00,1.00,1.00,1.00,1.00,1.00,1.00,1.00,1.00,1.00,1.00,1.00,1.00,1.00,1.00,1.00
DaySchedule,INFIL_QUARTER_ON_SCH_dy_4,FRACTION,No,Values:,0.25,0.25,0.25,0.25,0.25,0.25,0.25,0.25,0.25,0.25,0.25,0.25,0.25,0.25,0.25,0.25,0.25,0.25,0.25,0.25,0.25,0.25,0.25,0.25
DaySchedule,KITCHEN_ELEC_EQUIP_SCH_dy_1,FRACTION,No,Values:,0.10,0.10,0.10,0.10,0.10,0.10,0.25,0.35,0.35,0.25,0.35,0.35,0.35,0.25,0.25,0.25,0.35,0.35,0.35,0.25,0.25,0.25,0.25,0.25
DaySchedule,KITCHEN_ELEC_EQUIP_SCH_dy_2,FRACTION,No,Values:,0.10,0.10,0.10,0.10,0.10,0.10,0.25,0.35,0.35,0.25,0.35,0.35,0.35,0.25,0.25,0.25,0.35,0.35,0.35,0.25,0.25,0.25,0.25,0.25
DaySchedule,KITCHEN_ELEC_EQUIP_SCH_dy_3,FRACTION,No,Values:,0.35,0.35,0.35,0.35,0.35,0.35,0.35,0.35,0.35,0.35,0.35,0.35,0.35,0.35,0.35,0.35,0.35,0.35,0.35,0.35,0.35,0.35,0.35,0.35
DaySchedule,KITCHEN_ELEC_EQUIP_SCH_dy_4,FRACTION,No,Values:,0.00,0.00,0.00,0.00,0.00,0.00,0.00,0.00,0.00,0.00,0.00,0.00,0.00,0.00,0.00,0.00,0.00,0.00,0.00,0.00,0.00,0.00,0.00,0.00
DaySchedule,KITCHEN_ELEC_EQUIP_SCH_dy_5,FRACTION,No,Values:,0.10,0.10,0.10,0.10,0.10,0.10,0.25,0.35,0.35,0.25,0.35,0.35,0.35,0.25,0.25,0.25,0.35,0.35,0.35,0.25,0.25,0.25,0.25,0.25
DaySchedule,KITCHEN_GAS_EQUIP_SCH_dy_1,FRACTION,No,Values:,2.00E-002,2.00E-002,2.00E-002,2.00E-002,2.00E-002,5.00E-002,0.10,0.15,0.20,0.15,0.25,0.25,0.25,0.20,0.15,0.20,0.30,0.30,0.30,0.20,0.20,0.15,0.10,5.00E-002
DaySchedule,KITCHEN_GAS_EQUIP_SCH_dy_2,FRACTION,No,Values:,0.25,0.25,0.25,0.25,0.25,0.25,0.25,0.25,0.25,0.25,0.25,0.25,0.25,0.25,0.25,0.25,0.25,0.25,0.25,0.25,0.25,0.25,0.25,0.25
DaySchedule,KITCHEN_GAS_EQUIP_SCH_dy_3,FRACTION,No,Values:,0.00,0.00,0.00,0.00,0.00,0.00,0.00,0.00,0.00,0.00,0.00,0.00,0.00,0.00,0.00,0.00,0.00,0.00,0.00,0.00,0.00,0.00,0.00,0.00
DaySchedule,KITCHEN_GAS_EQUIP_SCH_dy_4,FRACTION,No,Values:,2.00E-002,2.00E-002,2.00E-002,2.00E-002,2.00E-002,5.00E-002,0.10,0.15,0.20,0.15,0.25,0.25,0.25,0.20,0.15,0.20,0.30,0.30,0.30,0.20,0.20,0.15,0.10,5.00E-002
DaySchedule,WORK_EFF_SCH_dy_1,FRACTION,No,Values:,0.00,0.00,0.00,0.00,0.00,0.00,0.00,0.00,0.00,0.00,0.00,0.00,0.00,0.00,0.00,0.00,0.00,0.00,0.00,0.00,0.00,0.00,0.00,0.00
DaySchedule,CLOTHING_SCH_dy_1,ANY NUMBER,No,Values:,1.00,1.00,1.00,1.00,1.00,1.00,1.00,1.00,1.00,1.00,1.00,1.00,1.00,1.00,1.00,1.00,1.00,1.00,1.00,1.00,1.00,1.00,1.00,1.00
DaySchedule,CLOTHING_SCH_dy_2,ANY NUMBER,No,Values:,0.50,0.50,0.50,0.50,0.50,0.50,0.50,0.50,0.50,0.50,0.50,0.50,0.50,0.50,0.50,0.50,0.50,0.50,0.50,0.50,0.50,0.50,0.50,0.50
DaySchedule,CLOTHING_SCH_dy_3,ANY NUMBER,No,Values:,1.00,1.00,1.00,1.00,1.00,1.00,1.00,1.00,1.00,1.00,1.00,1.00,1.00,1.00,1.00,1.00,1.00,1.00,1.00,1.00,1.00,1.00,1.00,1.00
DaySchedule,ACTIVITY_SCH_dy_1,ANY NUMBER,No,Values:,120.00,120.00,120.00,120.00,120.00,120.00,120.00,120.00,120.00,120.00,120.00,120.00,120.00,120.00,120.00,120.00,120.00,120.00,120.00,120.00,120.00,120.00,120.00,120.00
DaySchedule,AIR_VELO_SCH_dy_1,ANY NUMBER,No,Values:,0.20,0.20,0.20,0.20,0.20,0.20,0.20,0.20,0.20,0.20,0.20,0.20,0.20,0.20,0.20,0.20,0.20,0.20,0.20,0.20,0.20,0.20,0.20,0.20
DaySchedule,ADMIN_CLGSETP_SCH_dy_1,TEMPERATURE,No,Values:,25.00,25.00,25.00,25.00,25.00,22.20,22.20,22.20,22.20,22.20,22.20,22.20,22.20,22.20,22.20,22.20,22.20,22.20,25.00,25.00,25.00,25.00,25.00,25.00
DaySchedule,ADMIN_CLGSETP_SCH_dy_2,TEMPERATURE,No,Values:,25.00,25.00,25.00,25.00,25.00,22.20,22.20,22.20,22.20,22.20,22.20,22.20,22.20,22.20,22.20,22.20,22.20,22.20,25.00,25.00,25.00,25.00,25.00,25.00
DaySchedule,ADMIN_CLGSETP_SCH_dy_3,TEMPERATURE,No,Values:,25.00,25.00,25.00,25.00,25.00,25.00,25.00,22.20,22.20,22.20,22.20,22.20,22.20,22.20,22.20,25.00,25.00,25.00,25.00,25.00,25.00,25.00,25.00,25.00
DaySchedule,ADMIN_CLGSETP_SCH_dy_4,TEMPERATURE,No,Values:,25.00,25.00,25.00,25.00,25.00,25.00,25.00,22.20,22.20,22.20,22.20,22.20,22.20,22.20,22.20,25.00,25.00,25.00,25.00,25.00,25.00,25.00,25.00,25.00
DaySchedule,ADMIN_CLGSETP_SCH_dy_5,TEMPERATURE,No,Values:,25.00,25.00,25.00,25.00,25.00,25.00,25.00,25.00,25.00,25.00,25.00,25.00,25.00,25.00,25.00,25.00,25.00,25.00,25.00,25.00,25.00,25.00,25.00,25.00
DaySchedule,ADMIN_HTGSETP_SCH_dy_1,TEMPERATURE,No,Values:,18.30,18.30,18.30,18.30,18.30,21.10,21.10,21.10,21.10,21.10,21.10,21.10,21.10,21.10,21.10,21.10,21.10,21.10,18.30,18.30,18.30,18.30,18.30,18.30
DaySchedule,ADMIN_HTGSETP_SCH_dy_2,TEMPERATURE,No,Values:,18.30,18.30,18.30,18.30,18.30,21.10,21.10,21.10,21.10,21.10,21.10,21.10,21.10,21.10,21.10,21.10,21.10,21.10,18.30,18.30,18.30,18.30,18.30,18.30
DaySchedule,ADMIN_HTGSETP_SCH_dy_3,TEMPERATURE,No,Values:,18.30,18.30,18.30,18.30,18.30,18.30,18.30,21.10,21.10,21.10,21.10,21.10,21.10,21.10,21.10,18.30,18.30,18.30,18.30,18.30,18.30,18.30,18.30,18.30
DaySchedule,ADMIN_HTGSETP_SCH_dy_4,TEMPERATURE,No,Values:,18.30,18.30,18.30,18.30,18.30,18.30,18.30,21.10,21.10,21.10,21.10,21.10,21.10,21.10,21.10,18.30,18.30,18.30,18.30,18.30,18.30,18.30,18.30,18.30
DaySchedule,ADMIN_HTGSETP_SCH_dy_5,TEMPERATURE,No,Values:,18.30,18.30,18.30,18.30,18.30,18.30,18.30,18.30,18.30,18.30,18.30,18.30,18.30,18.30,18.30,18.30,18.30,18.30,18.30,18.30,18.30,18.30,18.30,18.30
DaySchedule,KITCHEN_CLGSETP_SCH_dy_1,TEMPERATURE,No,Values:,30.00,30.00,30.00,30.00,30.00,26.00,26.00,26.00,26.00,26.00,26.00,26.00,26.00,26.00,26.00,26.00,26.00,26.00,30.00,30.00,30.00,30.00,30.00,30.00
DaySchedule,KITCHEN_CLGSETP_SCH_dy_2,TEMPERATURE,No,Values:,30.00,30.00,30.00,30.00,30.00,26.00,26.00,26.00,26.00,26.00,26.00,26.00,26.00,26.00,26.00,26.00,26.00,26.00,30.00,30.00,30.00,30.00,30.00,30.00
DaySchedule,KITCHEN_CLGSETP_SCH_dy_3,TEMPERATURE,No,Values:,30.00,30.00,30.00,30.00,30.00,30.00,30.00,26.00,26.00,26.00,26.00,26.00,26.00,26.00,26.00,30.00,30.00,30.00,30.00,30.00,30.00,30.00,30.00,30.00
DaySchedule,KITCHEN_CLGSETP_SCH_dy_4,TEMPERATURE,No,Values:,30.00,30.00,30.00,30.00,30.00,30.00,30.00,26.00,26.00,26.00,26.00,26.00,26.00,26.00,26.00,30.00,30.00,30.00,30.00,30.00,30.00,30.00,30.00,30.00
DaySchedule,KITCHEN_CLGSETP_SCH_dy_5,TEMPERATURE,No,Values:,30.00,30.00,30.00,30.00,30.00,30.00,30.00,30.00,30.00,30.00,30.00,30.00,30.00,30.00,30.00,30.00,30.00,30.00,30.00,30.00,30.00,30.00,30.00,30.00
DaySchedule,KITCHEN_HTGSETP_SCH_dy_1,TEMPERATURE,No,Values:,15.60,15.60,15.60,15.60,15.60,19.00,19.00,19.00,19.00,19.00,19.00,19.00,19.00,19.00,19.00,19.00,19.00,19.00,15.60,15.60,15.60,15.60,15.60,15.60
DaySchedule,KITCHEN_HTGSETP_SCH_dy_2,TEMPERATURE,No,Values:,15.60,15.60,15.60,15.60,15.60,19.00,19.00,19.00,19.00,19.00,19.00,19.00,19.00,19.00,19.00,19.00,19.00,19.00,15.60,15.60,15.60,15.60,15.60,15.60
DaySchedule,KITCHEN_HTGSETP_SCH_dy_3,TEMPERATURE,No,Values:,15.60,15.60,15.60,15.60,15.60,15.60,15.60,19.00,19.00,19.00,19.00,19.00,19.00,19.00,19.00,15.60,15.60,15.60,15.60,15.60,15.60,15.60,15.60,15.60
DaySchedule,KITCHEN_HTGSETP_SCH_dy_4,TEMPERATURE,No,Values:,15.60,15.60,15.60,15.60,15.60,15.60,15.60,19.00,19.00,19.00,19.00,19.00,19.00,19.00,19.00,15.60,15.60,15.60,15.60,15.60,15.60,15.60,15.60,15.60
DaySchedule,KITCHEN_HTGSETP_SCH_dy_5,TEMPERATURE,No,Values:,15.60,15.60,15.60,15.60,15.60,15.60,15.60,15.60,15.60,15.60,15.60,15.60,15.60,15.60,15.60,15.60,15.60,15.60,15.60,15.60,15.60,15.60,15.60,15.60
DaySchedule,CRITICAL_CLGSETP_SCH_dy_1,TEMPERATURE,No,Values:,22.20,22.20,22.20,22.20,22.20,22.20,22.20,22.20,22.20,22.20,22.20,22.20,22.20,22.20,22.20,22.20,22.20,22.20,22.20,22.20,22.20,22.20,22.20,22.20
DaySchedule,CRITICAL_HTGSETP_SCH_dy_1,TEMPERATURE,No,Values:,21.10,21.10,21.10,21.10,21.10,21.10,21.10,21.10,21.10,21.10,21.10,21.10,21.10,21.10,21.10,21.10,21.10,21.10,21.10,21.10,21.10,21.10,21.10,21.10
DaySchedule,OR_CLGSETP_SCH_dy_1,TEMPERATURE,No,Values:,22.20,22.20,22.20,22.20,22.20,22.20,18.30,18.30,18.30,18.30,18.30,18.30,18.30,18.30,18.30,18.30,18.30,22.20,22.20,22.20,22.20,22.20,22.20,22.20
DaySchedule,OR_HTGSETP_SCH_dy_1,TEMPERATURE,No,Values:,18.30,18.30,18.30,18.30,18.30,18.30,18.30,18.30,18.30,18.30,18.30,18.30,18.30,18.30,18.30,18.30,18.30,18.30,18.30,18.30,18.30,18.30,18.30,18.30
DaySchedule,DUAL ZONE CONTROL TYPE SCHED_dy_1,CONTROL TYPE,No,Values:,4.00,4.00,4.00,4.00,4.00,4.00,4.00,4.00,4.00,4.00,4.00,4.00,4.00,4.00,4.00,4.00,4.00,4.00,4.00,4.00,4.00,4.00,4.00,4.00
DaySchedule,MAXRELHUMSETSCH_dy_1,HUMIDITY,No,Values:,60.00,60.00,60.00,60.00,60.00,60.00,60.00,60.00,60.00,60.00,60.00,60.00,60.00,60.00,60.00,60.00,60.00,60.00,60.00,60.00,60.00,60.00,60.00,60.00
DaySchedule,MINRELHUMSETSCH_dy_1,HUMIDITY,No,Values:,40.00,40.00,40.00,40.00,40.00,40.00,40.00,40.00,40.00,40.00,40.00,40.00,40.00,40.00,40.00,40.00,40.00,40.00,40.00,40.00,40.00,40.00,40.00,40.00
DaySchedule,CAV_SAT_SCH_dy_1,TEMPERATURE,No,Values:,11.10,11.10,11.10,11.10,11.10,11.10,11.10,11.10,11.10,11.10,11.10,11.10,11.10,11.10,11.10,11.10,11.10,11.10,11.10,11.10,11.10,11.10,11.10,11.10
DaySchedule,HEATING-SUPPLY-AIR-TEMP-SCH_dy_1,TEMPERATURE,No,Values:,16.00,16.00,16.00,16.00,16.00,16.00,16.00,16.00,16.00,16.00,16.00,16.00,16.00,16.00,16.00,16.00,16.00,16.00,16.00,16.00,16.00,16.00,16.00,16.00
DaySchedule,SEASONAL-RESET-SUPPLY-AIR-TEMP-SCH_dy_1,TEMPERATURE,No,Values:,11.10,11.10,11.10,11.10,11.10,11.10,11.10,11.10,11.10,11.10,11.10,11.10,11.10,11.10,11.10,11.10,11.10,11.10,11.10,11.10,11.10,11.10,11.10,11.10
DaySchedule,HVACOPERATIONSCHD_dy_1,ON/OFF,No,Values:,1.00,1.00,1.00,1.00,1.00,1.00,1.00,1.00,1.00,1.00,1.00,1.00,1.00,1.00,1.00,1.00,1.00,1.00,1.00,1.00,1.00,1.00,1.00,1.00
DaySchedule,CAV_OAMINFRACSCHEDULE_dy_1,FRACTION,No,Values:,0.33,0.33,0.33,0.33,0.33,0.33,0.33,0.33,0.33,0.33,0.33,0.33,0.33,0.33,0.33,0.33,0.33,0.33,0.33,0.33,0.33,0.33,0.33,0.33
DaySchedule,VAV_OAMINFRACSCHEDULE_dy_1,FRACTION,No,Values:,0.25,0.25,0.25,0.25,0.25,0.25,0.25,0.25,0.25,0.25,0.25,0.25,0.25,0.25,0.25,0.25,0.25,0.25,0.25,0.25,0.25,0.25,0.25,0.25
DaySchedule,CW-LOOP-TEMP-SCHEDULE_dy_1,TEMPERATURE,No,Values:,6.70,6.70,6.70,6.70,6.70,6.70,6.70,6.70,6.70,6.70,6.70,6.70,6.70,6.70,6.70,6.70,6.70,6.70,6.70,6.70,6.70,6.70,6.70,6.70
DaySchedule,HW-LOOP-TEMP-SCHEDULE_dy_1,TEMPERATURE,No,Values:,82.20,82.20,82.20,82.20,82.20,82.20,82.20,82.20,82.20,82.20,82.20,82.20,82.20,82.20,82.20,82.20,82.20,82.20,82.20,82.20,82.20,82.20,82.20,82.20
DaySchedule,PLANTONSCHED_dy_1,ON/OFF,No,Values:,1.00,1.00,1.00,1.00,1.00,1.00,1.00,1.00,1.00,1.00,1.00,1.00,1.00,1.00,1.00,1.00,1.00,1.00,1.00,1.00,1.00,1.00,1.00,1.00
DaySchedule,KITCHEN_FLR_5_CASE:1_WALKINFREEZER_CASECREDITREDUXSCHED_dy_1,FRACTION,No,Values:,0.20,0.20,0.20,0.20,0.20,0.20,0.20,0.40,0.40,0.40,0.40,0.40,0.40,0.40,0.40,0.40,0.40,0.40,0.40,0.40,0.40,0.20,0.20,0.20
DaySchedule,KITCHEN_FLR_5_CASE:1_WALKINFREEZER_CASEDEFROST2ADAYSCHED_dy_1,ON/OFF,Average,Values:,0.00,0.00,0.00,0.00,0.00,0.00,0.00,0.00,0.00,0.00,0.00,0.00,0.00,0.00,0.00,0.00,0.00,0.00,0.00,0.00,0.00,0.00,0.00,0.00
DaySchedule,KITCHEN_FLR_5_CASE:1_WALKINFREEZER_CASEDRIPDOWN2ADAYSCHED_dy_1,ON/OFF,Average,Values:,0.00,0.00,0.00,0.00,0.00,0.00,0.00,0.00,0.00,0.00,0.00,0.00,0.00,0.00,0.00,0.00,0.00,0.00,0.00,0.00,0.00,0.00,0.00,0.00
DaySchedule,KITCHEN_FLR_5_CASE:1_WALKINFREEZER_WALKINSTOCKINGSCHED_dy_1,ANY NUMBER,No,Values:,0.00,0.00,0.00,0.00,725.00,417.00,290.00,0.00,0.00,0.00,0.00,0.00,0.00,0.00,0.00,0.00,0.00,0.00,0.00,0.00,0.00,0.00,0.00,0.00
DaySchedule,KITCHEN_FLR_5_CASE:1_WALKINFREEZER_WALKINSTOCKINGSCHED_dy_2,ANY NUMBER,No,Values:,0.00,0.00,0.00,0.00,125.00,117.00,90.00,0.00,0.00,0.00,0.00,0.00,0.00,0.00,0.00,0.00,0.00,0.00,0.00,125.00,117.00,90.00,0.00,0.00
DaySchedule,KITCHEN_FLR_5_CASE:2_SELFCONTAINEDDISPLAYCASE_CASESTOCKINGSCHED_dy_1,ANY NUMBER,No,Values:,0.00,0.00,0.00,0.00,0.00,0.00,50.00,70.00,70.00,80.00,70.00,50.00,50.00,80.00,90.00,80.00,0.00,0.00,0.00,0.00,0.00,0.00,0.00,0.00
DaySchedule,BLDG_SWH_EXTD_SCH_dy_1,FRACTION,No,Values:,0.30,0.30,0.30,0.30,0.30,0.30,0.30,0.50,0.58,0.66,0.78,0.82,0.71,0.82,0.78,0.74,0.63,0.41,0.35,0.35,0.35,0.30,0.30,0.30
DaySchedule,BLDG_SWH_EXTD_SCH_dy_2,FRACTION,No,Values:,0.30,0.30,0.30,0.30,0.30,0.30,0.30,0.30,0.40,0.50,0.60,0.60,0.60,0.60,0.60,0.60,0.60,0.50,0.30,0.30,0.30,0.30,0.30,0.30
DaySchedule,BLDG_SWH_SCH_dy_1,FRACTION,No,Values:,1.00E-002,1.00E-002,1.00E-002,1.00E-002,1.00E-002,1.00E-002,1.00E-002,0.17,0.58,0.66,0.78,0.82,0.71,0.82,0.78,0.74,0.63,0.41,0.18,0.18,0.18,0.10,1.00E-002,1.00E-002
DaySchedule,BLDG_SWH_SCH_dy_2,FRACTION,No,Values:,1.00E-002,1.00E-002,1.00E-002,1.00E-002,1.00E-002,1.00E-002,1.00E-002,1.00E-002,0.20,0.28,0.30,0.30,0.24,0.24,0.23,0.23,0.23,0.10,1.00E-002,1.00E-002,1.00E-002,1.00E-002,1.00E-002,1.00E-002
DaySchedule,BLDG_SWH_SCH_dy_3,FRACTION,No,Values:,1.00E-002,1.00E-002,1.00E-002,1.00E-002,1.00E-002,1.00E-002,1.00E-002,1.00E-002,1.00E-002,1.00E-002,1.00E-002,1.00E-002,1.00E-002,1.00E-002,1.00E-002,1.00E-002,1.00E-002,1.00E-002,1.00E-002,1.00E-002,1.00E-002,1.00E-002,1.00E-002,1.00E-002
DaySchedule,WATER EQUIPMENT HOT SUPPLY TEMP SCHED_dy_1,TEMPERATURE,No,Values:,49.00,49.00,49.00,49.00,49.00,49.00,49.00,49.00,49.00,49.00,49.00,49.00,49.00,49.00,49.00,49.00,49.00,49.00,49.00,49.00,49.00,49.00,49.00,49.00
DaySchedule,WATER EQUIPMENT LATENT FRACT SCHED_dy_1,FRACTION,No,Values:,5.00E-002,5.00E-002,5.00E-002,5.00E-002,5.00E-002,5.00E-002,5.00E-002,5.00E-002,5.00E-002,5.00E-002,5.00E-002,5.00E-002,5.00E-002,5.00E-002,5.00E-002,5.00E-002,5.00E-002,5.00E-002,5.00E-002,5.00E-002,5.00E-002,5.00E-002,5.00E-002,5.00E-002
DaySchedule,WATER EQUIPMENT SENSIBLE FRACT SCHED_dy_1,FRACTION,No,Values:,0.20,0.20,0.20,0.20,0.20,0.20,0.20,0.20,0.20,0.20,0.20,0.20,0.20,0.20,0.20,0.20,0.20,0.20,0.20,0.20,0.20,0.20,0.20,0.20
DaySchedule,WATER EQUIPMENT TEMP SCHED_dy_1,TEMPERATURE,No,Values:,49.00,49.00,49.00,49.00,49.00,49.00,49.00,49.00,49.00,49.00,49.00,49.00,49.00,49.00,49.00,49.00,49.00,49.00,49.00,49.00,49.00,49.00,49.00,49.00
DaySchedule,SWHSYS1 WATER HEATER AMBIENT TEMPERATURE SCHEDULE NAME_dy_1,TEMPERATURE,No,Values:,22.00,22.00,22.00,22.00,22.00,22.00,22.00,22.00,22.00,22.00,22.00,22.00,22.00,22.00,22.00,22.00,22.00,22.00,22.00,22.00,22.00,22.00,22.00,22.00
DaySchedule,SWHSYS1 WATER HEATER SETPOINT TEMPERATURE SCHEDULE NAME_dy_1,TEMPERATURE,No,Values:,60.00,60.00,60.00,60.00,60.00,60.00,60.00,60.00,60.00,60.00,60.00,60.00,60.00,60.00,60.00,60.00,60.00,60.00,60.00,60.00,60.00,60.00,60.00,60.00
DaySchedule,SWHSYS1-LOOP-TEMP-SCHEDULE_dy_1,TEMPERATURE,No,Values:,60.00,60.00,60.00,60.00,60.00,60.00,60.00,60.00,60.00,60.00,60.00,60.00,60.00,60.00,60.00,60.00,60.00,60.00,60.00,60.00,60.00,60.00,60.00,60.00
Schedule:Week:Daily,ALWAYS_ON_wk_1,ALWAYS_ON_dy_1,ALWAYS_ON_dy_1,ALWAYS_ON_dy_1,ALWAYS_ON_dy_1,ALWAYS_ON_dy_1,ALWAYS_ON_dy_1,ALWAYS_ON_dy_1,ALWAYS_ON_dy_1,ALWAYS_ON_dy_1,ALWAYS_ON_dy_1,ALWAYS_ON_dy_1,ALWAYS_ON_dy_1
Schedule:Week:Daily,KITCHEN_EXHAUST_SCH_wk_1,KITCHEN_EXHAUST_SCH_dy_5,KITCHEN_EXHAUST_SCH_dy_1,KITCHEN_EXHAUST_SCH_dy_1,KITCHEN_EXHAUST_SCH_dy_1,KITCHEN_EXHAUST_SCH_dy_1,KITCHEN_EXHAUST_SCH_dy_1,KITCHEN_EXHAUST_SCH_dy_4,KITCHEN_EXHAUST_SCH_dy_5,KITCHEN_EXHAUST_SCH_dy_2,KITCHEN_EXHAUST_SCH_dy_3,KITCHEN_EXHAUST_SCH_dy_5,KITCHEN_EXHAUST_SCH_dy_5
Schedule:Week:Daily,ADMIN_EQUIP_SCH_wk_1,ADMIN_EQUIP_SCH_dy_5,ADMIN_EQUIP_SCH_dy_1,ADMIN_EQUIP_SCH_dy_1,ADMIN_EQUIP_SCH_dy_1,ADMIN_EQUIP_SCH_dy_1,ADMIN_EQUIP_SCH_dy_1,ADMIN_EQUIP_SCH_dy_4,ADMIN_EQUIP_SCH_dy_5,ADMIN_EQUIP_SCH_dy_2,ADMIN_EQUIP_SCH_dy_3,ADMIN_EQUIP_SCH_dy_5,ADMIN_EQUIP_SCH_dy_5
Schedule:Week:Daily,ADMIN_LIGHT_SCH_wk_1,ADMIN_LIGHT_SCH_dy_5,ADMIN_LIGHT_SCH_dy_1,ADMIN_LIGHT_SCH_dy_1,ADMIN_LIGHT_SCH_dy_1,ADMIN_LIGHT_SCH_dy_1,ADMIN_LIGHT_SCH_dy_1,ADMIN_LIGHT_SCH_dy_4,ADMIN_LIGHT_SCH_dy_5,ADMIN_LIGHT_SCH_dy_2,ADMIN_LIGHT_SCH_dy_3,ADMIN_LIGHT_SCH_dy_5,ADMIN_LIGHT_SCH_dy_5
Schedule:Week:Daily,ADMIN_OCC_SCH_wk_1,ADMIN_OCC_SCH_dy_5,ADMIN_OCC_SCH_dy_1,ADMIN_OCC_SCH_dy_1,ADMIN_OCC_SCH_dy_1,ADMIN_OCC_SCH_dy_1,ADMIN_OCC_SCH_dy_1,ADMIN_OCC_SCH_dy_4,ADMIN_OCC_SCH_dy_5,ADMIN_OCC_SCH_dy_2,ADMIN_OCC_SCH_dy_3,ADMIN_OCC_SCH_dy_5,ADMIN_OCC_SCH_dy_5
Schedule:Week:Daily,BLDG_ELEVATORS_wk_1,BLDG_ELEVATORS_dy_3,BLDG_ELEVATORS_dy_1,BLDG_ELEVATORS_dy_1,BLDG_ELEVATORS_dy_1,BLDG_ELEVATORS_dy_1,BLDG_ELEVATORS_dy_1,BLDG_ELEVATORS_dy_2,BLDG_ELEVATORS_dy_3,BLDG_ELEVATORS_dy_1,BLDG_ELEVATORS_dy_2,BLDG_ELEVATORS_dy_3,BLDG_ELEVATORS_dy_3
Schedule:Week:Daily,BLDG_LIGHT_SCH_wk_1,BLDG_LIGHT_SCH_dy_5,BLDG_LIGHT_SCH_dy_1,BLDG_LIGHT_SCH_dy_1,BLDG_LIGHT_SCH_dy_1,BLDG_LIGHT_SCH_dy_1,BLDG_LIGHT_SCH_dy_1,BLDG_LIGHT_SCH_dy_4,BLDG_LIGHT_SCH_dy_5,BLDG_LIGHT_SCH_dy_2,BLDG_LIGHT_SCH_dy_3,BLDG_LIGHT_SCH_dy_5,BLDG_LIGHT_SCH_dy_5
Schedule:Week:Daily,CRITICAL_EQUIP_SCH_wk_1,CRITICAL_EQUIP_SCH_dy_5,CRITICAL_EQUIP_SCH_dy_1,CRITICAL_EQUIP_SCH_dy_1,CRITICAL_EQUIP_SCH_dy_1,CRITICAL_EQUIP_SCH_dy_1,CRITICAL_EQUIP_SCH_dy_1,CRITICAL_EQUIP_SCH_dy_4,CRITICAL_EQUIP_SCH_dy_5,CRITICAL_EQUIP_SCH_dy_2,CRITICAL_EQUIP_SCH_dy_3,CRITICAL_EQUIP_SCH_dy_5,CRITICAL_EQUIP_SCH_dy_5
Schedule:Week:Daily,CRITICAL_LIGHT_SCH_wk_1,CRITICAL_LIGHT_SCH_dy_5,CRITICAL_LIGHT_SCH_dy_1,CRITICAL_LIGHT_SCH_dy_1,CRITICAL_LIGHT_SCH_dy_1,CRITICAL_LIGHT_SCH_dy_1,CRITICAL_LIGHT_SCH_dy_1,CRITICAL_LIGHT_SCH_dy_4,CRITICAL_LIGHT_SCH_dy_5,CRITICAL_LIGHT_SCH_dy_2,CRITICAL_LIGHT_SCH_dy_3,CRITICAL_LIGHT_SCH_dy_5,CRITICAL_LIGHT_SCH_dy_5
Schedule:Week:Daily,CRITICAL_OCC_SCH_wk_1,CRITICAL_OCC_SCH_dy_5,CRITICAL_OCC_SCH_dy_1,CRITICAL_OCC_SCH_dy_1,CRITICAL_OCC_SCH_dy_1,CRITICAL_OCC_SCH_dy_1,CRITICAL_OCC_SCH_dy_1,CRITICAL_OCC_SCH_dy_4,CRITICAL_OCC_SCH_dy_5,CRITICAL_OCC_SCH_dy_2,CRITICAL_OCC_SCH_dy_3,CRITICAL_OCC_SCH_dy_5,CRITICAL_OCC_SCH_dy_5
Schedule:Week:Daily,INFIL_QUARTER_ON_SCH_wk_1,INFIL_QUARTER_ON_SCH_dy_4,INFIL_QUARTER_ON_SCH_dy_1,INFIL_QUARTER_ON_SCH_dy_1,INFIL_QUARTER_ON_SCH_dy_1,INFIL_QUARTER_ON_SCH_dy_1,INFIL_QUARTER_ON_SCH_dy_1,INFIL_QUARTER_ON_SCH_dy_2,INFIL_QUARTER_ON_SCH_dy_4,INFIL_QUARTER_ON_SCH_dy_3,INFIL_QUARTER_ON_SCH_dy_3,INFIL_QUARTER_ON_SCH_dy_4,INFIL_QUARTER_ON_SCH_dy_4
Schedule:Week:Daily,KITCHEN_ELEC_EQUIP_SCH_wk_1,KITCHEN_ELEC_EQUIP_SCH_dy_5,KITCHEN_ELEC_EQUIP_SCH_dy_1,KITCHEN_ELEC_EQUIP_SCH_dy_1,KITCHEN_ELEC_EQUIP_SCH_dy_1,KITCHEN_ELEC_EQUIP_SCH_dy_1,KITCHEN_ELEC_EQUIP_SCH_dy_1,KITCHEN_ELEC_EQUIP_SCH_dy_2,KITCHEN_ELEC_EQUIP_SCH_dy_5,KITCHEN_ELEC_EQUIP_SCH_dy_3,KITCHEN_ELEC_EQUIP_SCH_dy_4,KITCHEN_ELEC_EQUIP_SCH_dy_5,KITCHEN_ELEC_EQUIP_SCH_dy_5
Schedule:Week:Daily,KITCHEN_GAS_EQUIP_SCH_wk_1,KITCHEN_GAS_EQUIP_SCH_dy_4,KITCHEN_GAS_EQUIP_SCH_dy_1,KITCHEN_GAS_EQUIP_SCH_dy_1,KITCHEN_GAS_EQUIP_SCH_dy_1,KITCHEN_GAS_EQUIP_SCH_dy_1,KITCHEN_GAS_EQUIP_SCH_dy_1,KITCHEN_GAS_EQUIP_SCH_dy_1,KITCHEN_GAS_EQUIP_SCH_dy_4,KITCHEN_GAS_EQUIP_SCH_dy_2,KITCHEN_GAS_EQUIP_SCH_dy_3,KITCHEN_GAS_EQUIP_SCH_dy_4,KITCHEN_GAS_EQUIP_SCH_dy_4
Schedule:Week:Daily,WORK_EFF_SCH_wk_1,WORK_EFF_SCH_dy_1,WORK_EFF_SCH_dy_1,WORK_EFF_SCH_dy_1,WORK_EFF_SCH_dy_1,WORK_EFF_SCH_dy_1,WORK_EFF_SCH_dy_1,WORK_EFF_SCH_dy_1,WORK_EFF_SCH_dy_1,WORK_EFF_SCH_dy_1,WORK_EFF_SCH_dy_1,WORK_EFF_SCH_dy_1,WORK_EFF_SCH_dy_1
Schedule:Week:Daily,CLOTHING_SCH_wk_1,CLOTHING_SCH_dy_1,CLOTHING_SCH_dy_1,CLOTHING_SCH_dy_1,CLOTHING_SCH_dy_1,CLOTHING_SCH_dy_1,CLOTHING_SCH_dy_1,CLOTHING_SCH_dy_1,CLOTHING_SCH_dy_1,CLOTHING_SCH_dy_1,CLOTHING_SCH_dy_1,CLOTHING_SCH_dy_1,CLOTHING_SCH_dy_1
Schedule:Week:Daily,CLOTHING_SCH_wk_2,CLOTHING_SCH_dy_2,CLOTHING_SCH_dy_2,CLOTHING_SCH_dy_2,CLOTHING_SCH_dy_2,CLOTHING_SCH_dy_2,CLOTHING_SCH_dy_2,CLOTHING_SCH_dy_2,CLOTHING_SCH_dy_2,CLOTHING_SCH_dy_2,CLOTHING_SCH_dy_2,CLOTHING_SCH_dy_2,CLOTHING_SCH_dy_2
Schedule:Week:Daily,CLOTHING_SCH_wk_3,CLOTHING_SCH_dy_3,CLOTHING_SCH_dy_3,CLOTHING_SCH_dy_3,CLOTHING_SCH_dy_3,CLOTHING_SCH_dy_3,CLOTHING_SCH_dy_3,CLOTHING_SCH_dy_3,CLOTHING_SCH_dy_3,CLOTHING_SCH_dy_3,CLOTHING_SCH_dy_3,CLOTHING_SCH_dy_3,CLOTHING_SCH_dy_3
Schedule:Week:Daily,ACTIVITY_SCH_wk_1,ACTIVITY_SCH_dy_1,ACTIVITY_SCH_dy_1,ACTIVITY_SCH_dy_1,ACTIVITY_SCH_dy_1,ACTIVITY_SCH_dy_1,ACTIVITY_SCH_dy_1,ACTIVITY_SCH_dy_1,ACTIVITY_SCH_dy_1,ACTIVITY_SCH_dy_1,ACTIVITY_SCH_dy_1,ACTIVITY_SCH_dy_1,ACTIVITY_SCH_dy_1
Schedule:Week:Daily,AIR_VELO_SCH_wk_1,AIR_VELO_SCH_dy_1,AIR_VELO_SCH_dy_1,AIR_VELO_SCH_dy_1,AIR_VELO_SCH_dy_1,AIR_VELO_SCH_dy_1,AIR_VELO_SCH_dy_1,AIR_VELO_SCH_dy_1,AIR_VELO_SCH_dy_1,AIR_VELO_SCH_dy_1,AIR_VELO_SCH_dy_1,AIR_VELO_SCH_dy_1,AIR_VELO_SCH_dy_1
Schedule:Week:Daily,ADMIN_CLGSETP_SCH_wk_1,ADMIN_CLGSETP_SCH_dy_5,ADMIN_CLGSETP_SCH_dy_1,ADMIN_CLGSETP_SCH_dy_1,ADMIN_CLGSETP_SCH_dy_1,ADMIN_CLGSETP_SCH_dy_1,ADMIN_CLGSETP_SCH_dy_1,ADMIN_CLGSETP_SCH_dy_4,ADMIN_CLGSETP_SCH_dy_5,ADMIN_CLGSETP_SCH_dy_2,ADMIN_CLGSETP_SCH_dy_3,ADMIN_CLGSETP_SCH_dy_5,ADMIN_CLGSETP_SCH_dy_5
Schedule:Week:Daily,ADMIN_HTGSETP_SCH_wk_1,ADMIN_HTGSETP_SCH_dy_5,ADMIN_HTGSETP_SCH_dy_1,ADMIN_HTGSETP_SCH_dy_1,ADMIN_HTGSETP_SCH_dy_1,ADMIN_HTGSETP_SCH_dy_1,ADMIN_HTGSETP_SCH_dy_1,ADMIN_HTGSETP_SCH_dy_4,ADMIN_HTGSETP_SCH_dy_5,ADMIN_HTGSETP_SCH_dy_2,ADMIN_HTGSETP_SCH_dy_3,ADMIN_HTGSETP_SCH_dy_5,ADMIN_HTGSETP_SCH_dy_5
Schedule:Week:Daily,KITCHEN_CLGSETP_SCH_wk_1,KITCHEN_CLGSETP_SCH_dy_5,KITCHEN_CLGSETP_SCH_dy_1,KITCHEN_CLGSETP_SCH_dy_1,KITCHEN_CLGSETP_SCH_dy_1,KITCHEN_CLGSETP_SCH_dy_1,KITCHEN_CLGSETP_SCH_dy_1,KITCHEN_CLGSETP_SCH_dy_4,KITCHEN_CLGSETP_SCH_dy_5,KITCHEN_CLGSETP_SCH_dy_2,KITCHEN_CLGSETP_SCH_dy_3,KITCHEN_CLGSETP_SCH_dy_5,KITCHEN_CLGSETP_SCH_dy_5
Schedule:Week:Daily,KITCHEN_HTGSETP_SCH_wk_1,KITCHEN_HTGSETP_SCH_dy_5,KITCHEN_HTGSETP_SCH_dy_1,KITCHEN_HTGSETP_SCH_dy_1,KITCHEN_HTGSETP_SCH_dy_1,KITCHEN_HTGSETP_SCH_dy_1,KITCHEN_HTGSETP_SCH_dy_1,KITCHEN_HTGSETP_SCH_dy_4,KITCHEN_HTGSETP_SCH_dy_5,KITCHEN_HTGSETP_SCH_dy_2,KITCHEN_HTGSETP_SCH_dy_3,KITCHEN_HTGSETP_SCH_dy_5,KITCHEN_HTGSETP_SCH_dy_5
Schedule:Week:Daily,CRITICAL_CLGSETP_SCH_wk_1,CRITICAL_CLGSETP_SCH_dy_1,CRITICAL_CLGSETP_SCH_dy_1,CRITICAL_CLGSETP_SCH_dy_1,CRITICAL_CLGSETP_SCH_dy_1,CRITICAL_CLGSETP_SCH_dy_1,CRITICAL_CLGSETP_SCH_dy_1,CRITICAL_CLGSETP_SCH_dy_1,CRITICAL_CLGSETP_SCH_dy_1,CRITICAL_CLGSETP_SCH_dy_1,CRITICAL_CLGSETP_SCH_dy_1,CRITICAL_CLGSETP_SCH_dy_1,CRITICAL_CLGSETP_SCH_dy_1
Schedule:Week:Daily,CRITICAL_HTGSETP_SCH_wk_1,CRITICAL_HTGSETP_SCH_dy_1,CRITICAL_HTGSETP_SCH_dy_1,CRITICAL_HTGSETP_SCH_dy_1,CRITICAL_HTGSETP_SCH_dy_1,CRITICAL_HTGSETP_SCH_dy_1,CRITICAL_HTGSETP_SCH_dy_1,CRITICAL_HTGSETP_SCH_dy_1,CRITICAL_HTGSETP_SCH_dy_1,CRITICAL_HTGSETP_SCH_dy_1,CRITICAL_HTGSETP_SCH_dy_1,CRITICAL_HTGSETP_SCH_dy_1,CRITICAL_HTGSETP_SCH_dy_1
Schedule:Week:Daily,OR_CLGSETP_SCH_wk_1,OR_CLGSETP_SCH_dy_1,OR_CLGSETP_SCH_dy_1,OR_CLGSETP_SCH_dy_1,OR_CLGSETP_SCH_dy_1,OR_CLGSETP_SCH_dy_1,OR_CLGSETP_SCH_dy_1,OR_CLGSETP_SCH_dy_1,OR_CLGSETP_SCH_dy_1,OR_CLGSETP_SCH_dy_1,OR_CLGSETP_SCH_dy_1,OR_CLGSETP_SCH_dy_1,OR_CLGSETP_SCH_dy_1
Schedule:Week:Daily,OR_HTGSETP_SCH_wk_1,OR_HTGSETP_SCH_dy_1,OR_HTGSETP_SCH_dy_1,OR_HTGSETP_SCH_dy_1,OR_HTGSETP_SCH_dy_1,OR_HTGSETP_SCH_dy_1,OR_HTGSETP_SCH_dy_1,OR_HTGSETP_SCH_dy_1,OR_HTGSETP_SCH_dy_1,OR_HTGSETP_SCH_dy_1,OR_HTGSETP_SCH_dy_1,OR_HTGSETP_SCH_dy_1,OR_HTGSETP_SCH_dy_1
Schedule:Week:Daily,DUAL ZONE CONTROL TYPE SCHED_wk_1,DUAL ZONE CONTROL TYPE SCHED_dy_1,DUAL ZONE CONTROL TYPE SCHED_dy_1,DUAL ZONE CONTROL TYPE SCHED_dy_1,DUAL ZONE CONTROL TYPE SCHED_dy_1,DUAL ZONE CONTROL TYPE SCHED_dy_1,DUAL ZONE CONTROL TYPE SCHED_dy_1,DUAL ZONE CONTROL TYPE SCHED_dy_1,DUAL ZONE CONTROL TYPE SCHED_dy_1,DUAL ZONE CONTROL TYPE SCHED_dy_1,DUAL ZONE CONTROL TYPE SCHED_dy_1,DUAL ZONE CONTROL TYPE SCHED_dy_1,DUAL ZONE CONTROL TYPE SCHED_dy_1
Schedule:Week:Daily,MAXRELHUMSETSCH_wk_1,MAXRELHUMSETSCH_dy_1,MAXRELHUMSETSCH_dy_1,MAXRELHUMSETSCH_dy_1,MAXRELHUMSETSCH_dy_1,MAXRELHUMSETSCH_dy_1,MAXRELHUMSETSCH_dy_1,MAXRELHUMSETSCH_dy_1,MAXRELHUMSETSCH_dy_1,MAXRELHUMSETSCH_dy_1,MAXRELHUMSETSCH_dy_1,MAXRELHUMSETSCH_dy_1,MAXRELHUMSETSCH_dy_1
Schedule:Week:Daily,MINRELHUMSETSCH_wk_1,MINRELHUMSETSCH_dy_1,MINRELHUMSETSCH_dy_1,MINRELHUMSETSCH_dy_1,MINRELHUMSETSCH_dy_1,MINRELHUMSETSCH_dy_1,MINRELHUMSETSCH_dy_1,MINRELHUMSETSCH_dy_1,MINRELHUMSETSCH_dy_1,MINRELHUMSETSCH_dy_1,MINRELHUMSETSCH_dy_1,MINRELHUMSETSCH_dy_1,MINRELHUMSETSCH_dy_1
Schedule:Week:Daily,CAV_SAT_SCH_wk_1,CAV_SAT_SCH_dy_1,CAV_SAT_SCH_dy_1,CAV_SAT_SCH_dy_1,CAV_SAT_SCH_dy_1,CAV_SAT_SCH_dy_1,CAV_SAT_SCH_dy_1,CAV_SAT_SCH_dy_1,CAV_SAT_SCH_dy_1,CAV_SAT_SCH_dy_1,CAV_SAT_SCH_dy_1,CAV_SAT_SCH_dy_1,CAV_SAT_SCH_dy_1
Schedule:Week:Daily,HEATING-SUPPLY-AIR-TEMP-SCH_wk_1,HEATING-SUPPLY-AIR-TEMP-SCH_dy_1,HEATING-SUPPLY-AIR-TEMP-SCH_dy_1,HEATING-SUPPLY-AIR-TEMP-SCH_dy_1,HEATING-SUPPLY-AIR-TEMP-SCH_dy_1,HEATING-SUPPLY-AIR-TEMP-SCH_dy_1,HEATING-SUPPLY-AIR-TEMP-SCH_dy_1,HEATING-SUPPLY-AIR-TEMP-SCH_dy_1,HEATING-SUPPLY-AIR-TEMP-SCH_dy_1,HEATING-SUPPLY-AIR-TEMP-SCH_dy_1,HEATING-SUPPLY-AIR-TEMP-SCH_dy_1,HEATING-SUPPLY-AIR-TEMP-SCH_dy_1,HEATING-SUPPLY-AIR-TEMP-SCH_dy_1
Schedule:Week:Daily,SEASONAL-RESET-SUPPLY-AIR-TEMP-SCH_wk_1,SEASONAL-RESET-SUPPLY-AIR-TEMP-SCH_dy_1,SEASONAL-RESET-SUPPLY-AIR-TEMP-SCH_dy_1,SEASONAL-RESET-SUPPLY-AIR-TEMP-SCH_dy_1,SEASONAL-RESET-SUPPLY-AIR-TEMP-SCH_dy_1,SEASONAL-RESET-SUPPLY-AIR-TEMP-SCH_dy_1,SEASONAL-RESET-SUPPLY-AIR-TEMP-SCH_dy_1,SEASONAL-RESET-SUPPLY-AIR-TEMP-SCH_dy_1,SEASONAL-RESET-SUPPLY-AIR-TEMP-SCH_dy_1,SEASONAL-RESET-SUPPLY-AIR-TEMP-SCH_dy_1,SEASONAL-RESET-SUPPLY-AIR-TEMP-SCH_dy_1,SEASONAL-RESET-SUPPLY-AIR-TEMP-SCH_dy_1,SEASONAL-RESET-SUPPLY-AIR-TEMP-SCH_dy_1
Schedule:Week:Daily,HVACOPERATIONSCHD_wk_1,HVACOPERATIONSCHD_dy_1,HVACOPERATIONSCHD_dy_1,HVACOPERATIONSCHD_dy_1,HVACOPERATIONSCHD_dy_1,HVACOPERATIONSCHD_dy_1,HVACOPERATIONSCHD_dy_1,HVACOPERATIONSCHD_dy_1,HVACOPERATIONSCHD_dy_1,HVACOPERATIONSCHD_dy_1,HVACOPERATIONSCHD_dy_1,HVACOPERATIONSCHD_dy_1,HVACOPERATIONSCHD_dy_1
Schedule:Week:Daily,CAV_OAMINFRACSCHEDULE_wk_1,CAV_OAMINFRACSCHEDULE_dy_1,CAV_OAMINFRACSCHEDULE_dy_1,CAV_OAMINFRACSCHEDULE_dy_1,CAV_OAMINFRACSCHEDULE_dy_1,CAV_OAMINFRACSCHEDULE_dy_1,CAV_OAMINFRACSCHEDULE_dy_1,CAV_OAMINFRACSCHEDULE_dy_1,CAV_OAMINFRACSCHEDULE_dy_1,CAV_OAMINFRACSCHEDULE_dy_1,CAV_OAMINFRACSCHEDULE_dy_1,CAV_OAMINFRACSCHEDULE_dy_1,CAV_OAMINFRACSCHEDULE_dy_1
Schedule:Week:Daily,VAV_OAMINFRACSCHEDULE_wk_1,VAV_OAMINFRACSCHEDULE_dy_1,VAV_OAMINFRACSCHEDULE_dy_1,VAV_OAMINFRACSCHEDULE_dy_1,VAV_OAMINFRACSCHEDULE_dy_1,VAV_OAMINFRACSCHEDULE_dy_1,VAV_OAMINFRACSCHEDULE_dy_1,VAV_OAMINFRACSCHEDULE_dy_1,VAV_OAMINFRACSCHEDULE_dy_1,VAV_OAMINFRACSCHEDULE_dy_1,VAV_OAMINFRACSCHEDULE_dy_1,VAV_OAMINFRACSCHEDULE_dy_1,VAV_OAMINFRACSCHEDULE_dy_1
Schedule:Week:Daily,CW-LOOP-TEMP-SCHEDULE_wk_1,CW-LOOP-TEMP-SCHEDULE_dy_1,CW-LOOP-TEMP-SCHEDULE_dy_1,CW-LOOP-TEMP-SCHEDULE_dy_1,CW-LOOP-TEMP-SCHEDULE_dy_1,CW-LOOP-TEMP-SCHEDULE_dy_1,CW-LOOP-TEMP-SCHEDULE_dy_1,CW-LOOP-TEMP-SCHEDULE_dy_1,CW-LOOP-TEMP-SCHEDULE_dy_1,CW-LOOP-TEMP-SCHEDULE_dy_1,CW-LOOP-TEMP-SCHEDULE_dy_1,CW-LOOP-TEMP-SCHEDULE_dy_1,CW-LOOP-TEMP-SCHEDULE_dy_1
Schedule:Week:Daily,HW-LOOP-TEMP-SCHEDULE_wk_1,HW-LOOP-TEMP-SCHEDULE_dy_1,HW-LOOP-TEMP-SCHEDULE_dy_1,HW-LOOP-TEMP-SCHEDULE_dy_1,HW-LOOP-TEMP-SCHEDULE_dy_1,HW-LOOP-TEMP-SCHEDULE_dy_1,HW-LOOP-TEMP-SCHEDULE_dy_1,HW-LOOP-TEMP-SCHEDULE_dy_1,HW-LOOP-TEMP-SCHEDULE_dy_1,HW-LOOP-TEMP-SCHEDULE_dy_1,HW-LOOP-TEMP-SCHEDULE_dy_1,HW-LOOP-TEMP-SCHEDULE_dy_1,HW-LOOP-TEMP-SCHEDULE_dy_1
Schedule:Week:Daily,PLANTONSCHED_wk_1,PLANTONSCHED_dy_1,PLANTONSCHED_dy_1,PLANTONSCHED_dy_1,PLANTONSCHED_dy_1,PLANTONSCHED_dy_1,PLANTONSCHED_dy_1,PLANTONSCHED_dy_1,PLANTONSCHED_dy_1,PLANTONSCHED_dy_1,PLANTONSCHED_dy_1,PLANTONSCHED_dy_1,PLANTONSCHED_dy_1
Schedule:Week:Daily,KITCHEN_FLR_5_CASE:1_WALKINFREEZER_CASECREDITREDUXSCHED_wk_1,KITCHEN_FLR_5_CASE:1_WALKINFREEZER_CASECREDITREDUXSCHED_dy_1,KITCHEN_FLR_5_CASE:1_WALKINFREEZER_CASECREDITREDUXSCHED_dy_1,KITCHEN_FLR_5_CASE:1_WALKINFREEZER_CASECREDITREDUXSCHED_dy_1,KITCHEN_FLR_5_CASE:1_WALKINFREEZER_CASECREDITREDUXSCHED_dy_1,KITCHEN_FLR_5_CASE:1_WALKINFREEZER_CASECREDITREDUXSCHED_dy_1,KITCHEN_FLR_5_CASE:1_WALKINFREEZER_CASECREDITREDUXSCHED_dy_1,KITCHEN_FLR_5_CASE:1_WALKINFREEZER_CASECREDITREDUXSCHED_dy_1,KITCHEN_FLR_5_CASE:1_WALKINFREEZER_CASECREDITREDUXSCHED_dy_1,KITCHEN_FLR_5_CASE:1_WALKINFREEZER_CASECREDITREDUXSCHED_dy_1,KITCHEN_FLR_5_CASE:1_WALKINFREEZER_CASECREDITREDUXSCHED_dy_1,KITCHEN_FLR_5_CASE:1_WALKINFREEZER_CASECREDITREDUXSCHED_dy_1,KITCHEN_FLR_5_CASE:1_WALKINFREEZER_CASECREDITREDUXSCHED_dy_1
Schedule:Week:Daily,KITCHEN_FLR_5_CASE:1_WALKINFREEZER_CASEDEFROST2ADAYSCHED_wk_1,KITCHEN_FLR_5_CASE:1_WALKINFREEZER_CASEDEFROST2ADAYSCHED_dy_1,KITCHEN_FLR_5_CASE:1_WALKINFREEZER_CASEDEFROST2ADAYSCHED_dy_1,KITCHEN_FLR_5_CASE:1_WALKINFREEZER_CASEDEFROST2ADAYSCHED_dy_1,KITCHEN_FLR_5_CASE:1_WALKINFREEZER_CASEDEFROST2ADAYSCHED_dy_1,KITCHEN_FLR_5_CASE:1_WALKINFREEZER_CASEDEFROST2ADAYSCHED_dy_1,KITCHEN_FLR_5_CASE:1_WALKINFREEZER_CASEDEFROST2ADAYSCHED_dy_1,KITCHEN_FLR_5_CASE:1_WALKINFREEZER_CASEDEFROST2ADAYSCHED_dy_1,KITCHEN_FLR_5_CASE:1_WALKINFREEZER_CASEDEFROST2ADAYSCHED_dy_1,KITCHEN_FLR_5_CASE:1_WALKINFREEZER_CASEDEFROST2ADAYSCHED_dy_1,KITCHEN_FLR_5_CASE:1_WALKINFREEZER_CASEDEFROST2ADAYSCHED_dy_1,KITCHEN_FLR_5_CASE:1_WALKINFREEZER_CASEDEFROST2ADAYSCHED_dy_1,KITCHEN_FLR_5_CASE:1_WALKINFREEZER_CASEDEFROST2ADAYSCHED_dy_1
Schedule:Week:Daily,KITCHEN_FLR_5_CASE:1_WALKINFREEZER_CASEDRIPDOWN2ADAYSCHED_wk_1,KITCHEN_FLR_5_CASE:1_WALKINFREEZER_CASEDRIPDOWN2ADAYSCHED_dy_1,KITCHEN_FLR_5_CASE:1_WALKINFREEZER_CASEDRIPDOWN2ADAYSCHED_dy_1,KITCHEN_FLR_5_CASE:1_WALKINFREEZER_CASEDRIPDOWN2ADAYSCHED_dy_1,KITCHEN_FLR_5_CASE:1_WALKINFREEZER_CASEDRIPDOWN2ADAYSCHED_dy_1,KITCHEN_FLR_5_CASE:1_WALKINFREEZER_CASEDRIPDOWN2ADAYSCHED_dy_1,KITCHEN_FLR_5_CASE:1_WALKINFREEZER_CASEDRIPDOWN2ADAYSCHED_dy_1,KITCHEN_FLR_5_CASE:1_WALKINFREEZER_CASEDRIPDOWN2ADAYSCHED_dy_1,KITCHEN_FLR_5_CASE:1_WALKINFREEZER_CASEDRIPDOWN2ADAYSCHED_dy_1,KITCHEN_FLR_5_CASE:1_WALKINFREEZER_CASEDRIPDOWN2ADAYSCHED_dy_1,KITCHEN_FLR_5_CASE:1_WALKINFREEZER_CASEDRIPDOWN2ADAYSCHED_dy_1,KITCHEN_FLR_5_CASE:1_WALKINFREEZER_CASEDRIPDOWN2ADAYSCHED_dy_1,KITCHEN_FLR_5_CASE:1_WALKINFREEZER_CASEDRIPDOWN2ADAYSCHED_dy_1
Schedule:Week:Daily,KITCHEN_FLR_5_CASE:1_WALKINFREEZER_WALKINSTOCKINGSCHED_wk_1,KITCHEN_FLR_5_CASE:1_WALKINFREEZER_WALKINSTOCKINGSCHED_dy_2,KITCHEN_FLR_5_CASE:1_WALKINFREEZER_WALKINSTOCKINGSCHED_dy_2,KITCHEN_FLR_5_CASE:1_WALKINFREEZER_WALKINSTOCKINGSCHED_dy_1,KITCHEN_FLR_5_CASE:1_WALKINFREEZER_WALKINSTOCKINGSCHED_dy_2,KITCHEN_FLR_5_CASE:1_WALKINFREEZER_WALKINSTOCKINGSCHED_dy_2,KITCHEN_FLR_5_CASE:1_WALKINFREEZER_WALKINSTOCKINGSCHED_dy_1,KITCHEN_FLR_5_CASE:1_WALKINFREEZER_WALKINSTOCKINGSCHED_dy_2,KITCHEN_FLR_5_CASE:1_WALKINFREEZER_WALKINSTOCKINGSCHED_dy_2,KITCHEN_FLR_5_CASE:1_WALKINFREEZER_WALKINSTOCKINGSCHED_dy_2,KITCHEN_FLR_5_CASE:1_WALKINFREEZER_WALKINSTOCKINGSCHED_dy_2,KITCHEN_FLR_5_CASE:1_WALKINFREEZER_WALKINSTOCKINGSCHED_dy_2,KITCHEN_FLR_5_CASE:1_WALKINFREEZER_WALKINSTOCKINGSCHED_dy_2
Schedule:Week:Daily,KITCHEN_FLR_5_CASE:2_SELFCONTAINEDDISPLAYCASE_CASESTOCKINGSCHED_wk_1,KITCHEN_FLR_5_CASE:2_SELFCONTAINEDDISPLAYCASE_CASESTOCKINGSCHED_dy_1,KITCHEN_FLR_5_CASE:2_SELFCONTAINEDDISPLAYCASE_CASESTOCKINGSCHED_dy_1,KITCHEN_FLR_5_CASE:2_SELFCONTAINEDDISPLAYCASE_CASESTOCKINGSCHED_dy_1,KITCHEN_FLR_5_CASE:2_SELFCONTAINEDDISPLAYCASE_CASESTOCKINGSCHED_dy_1,KITCHEN_FLR_5_CASE:2_SELFCONTAINEDDISPLAYCASE_CASESTOCKINGSCHED_dy_1,KITCHEN_FLR_5_CASE:2_SELFCONTAINEDDISPLAYCASE_CASESTOCKINGSCHED_dy_1,KITCHEN_FLR_5_CASE:2_SELFCONTAINEDDISPLAYCASE_CASESTOCKINGSCHED_dy_1,KITCHEN_FLR_5_CASE:2_SELFCONTAINEDDISPLAYCASE_CASESTOCKINGSCHED_dy_1,KITCHEN_FLR_5_CASE:2_SELFCONTAINEDDISPLAYCASE_CASESTOCKINGSCHED_dy_1,KITCHEN_FLR_5_CASE:2_SELFCONTAINEDDISPLAYCASE_CASESTOCKINGSCHED_dy_1,KITCHEN_FLR_5_CASE:2_SELFCONTAINEDDISPLAYCASE_CASESTOCKINGSCHED_dy_1,KITCHEN_FLR_5_CASE:2_SELFCONTAINEDDISPLAYCASE_CASESTOCKINGSCHED_dy_1
Schedule:Week:Daily,BLDG_SWH_EXTD_SCH_wk_1,BLDG_SWH_EXTD_SCH_dy_2,BLDG_SWH_EXTD_SCH_dy_1,BLDG_SWH_EXTD_SCH_dy_1,BLDG_SWH_EXTD_SCH_dy_1,BLDG_SWH_EXTD_SCH_dy_1,BLDG_SWH_EXTD_SCH_dy_1,BLDG_SWH_EXTD_SCH_dy_2,BLDG_SWH_EXTD_SCH_dy_2,BLDG_SWH_EXTD_SCH_dy_1,BLDG_SWH_EXTD_SCH_dy_2,BLDG_SWH_EXTD_SCH_dy_2,BLDG_SWH_EXTD_SCH_dy_2
Schedule:Week:Daily,BLDG_SWH_SCH_wk_1,BLDG_SWH_SCH_dy_3,BLDG_SWH_SCH_dy_1,BLDG_SWH_SCH_dy_1,BLDG_SWH_SCH_dy_1,BLDG_SWH_SCH_dy_1,BLDG_SWH_SCH_dy_1,BLDG_SWH_SCH_dy_2,BLDG_SWH_SCH_dy_3,BLDG_SWH_SCH_dy_1,BLDG_SWH_SCH_dy_2,BLDG_SWH_SCH_dy_3,BLDG_SWH_SCH_dy_3
Schedule:Week:Daily,WATER EQUIPMENT HOT SUPPLY TEMP SCHED_wk_1,WATER EQUIPMENT HOT SUPPLY TEMP SCHED_dy_1,WATER EQUIPMENT HOT SUPPLY TEMP SCHED_dy_1,WATER EQUIPMENT HOT SUPPLY TEMP SCHED_dy_1,WATER EQUIPMENT HOT SUPPLY TEMP SCHED_dy_1,WATER EQUIPMENT HOT SUPPLY TEMP SCHED_dy_1,WATER EQUIPMENT HOT SUPPLY TEMP SCHED_dy_1,WATER EQUIPMENT HOT SUPPLY TEMP SCHED_dy_1,WATER EQUIPMENT HOT SUPPLY TEMP SCHED_dy_1,WATER EQUIPMENT HOT SUPPLY TEMP SCHED_dy_1,WATER EQUIPMENT HOT SUPPLY TEMP SCHED_dy_1,WATER EQUIPMENT HOT SUPPLY TEMP SCHED_dy_1,WATER EQUIPMENT HOT SUPPLY TEMP SCHED_dy_1
Schedule:Week:Daily,WATER EQUIPMENT LATENT FRACT SCHED_wk_1,WATER EQUIPMENT LATENT FRACT SCHED_dy_1,WATER EQUIPMENT LATENT FRACT SCHED_dy_1,WATER EQUIPMENT LATENT FRACT SCHED_dy_1,WATER EQUIPMENT LATENT FRACT SCHED_dy_1,WATER EQUIPMENT LATENT FRACT SCHED_dy_1,WATER EQUIPMENT LATENT FRACT SCHED_dy_1,WATER EQUIPMENT LATENT FRACT SCHED_dy_1,WATER EQUIPMENT LATENT FRACT SCHED_dy_1,WATER EQUIPMENT LATENT FRACT SCHED_dy_1,WATER EQUIPMENT LATENT FRACT SCHED_dy_1,WATER EQUIPMENT LATENT FRACT SCHED_dy_1,WATER EQUIPMENT LATENT FRACT SCHED_dy_1
Schedule:Week:Daily,WATER EQUIPMENT SENSIBLE FRACT SCHED_wk_1,WATER EQUIPMENT SENSIBLE FRACT SCHED_dy_1,WATER EQUIPMENT SENSIBLE FRACT SCHED_dy_1,WATER EQUIPMENT SENSIBLE FRACT SCHED_dy_1,WATER EQUIPMENT SENSIBLE FRACT SCHED_dy_1,WATER EQUIPMENT SENSIBLE FRACT SCHED_dy_1,WATER EQUIPMENT SENSIBLE FRACT SCHED_dy_1,WATER EQUIPMENT SENSIBLE FRACT SCHED_dy_1,WATER EQUIPMENT SENSIBLE FRACT SCHED_dy_1,WATER EQUIPMENT SENSIBLE FRACT SCHED_dy_1,WATER EQUIPMENT SENSIBLE FRACT SCHED_dy_1,WATER EQUIPMENT SENSIBLE FRACT SCHED_dy_1,WATER EQUIPMENT SENSIBLE FRACT SCHED_dy_1
Schedule:Week:Daily,WATER EQUIPMENT TEMP SCHED_wk_1,WATER EQUIPMENT TEMP SCHED_dy_1,WATER EQUIPMENT TEMP SCHED_dy_1,WATER EQUIPMENT TEMP SCHED_dy_1,WATER EQUIPMENT TEMP SCHED_dy_1,WATER EQUIPMENT TEMP SCHED_dy_1,WATER EQUIPMENT TEMP SCHED_dy_1,WATER EQUIPMENT TEMP SCHED_dy_1,WATER EQUIPMENT TEMP SCHED_dy_1,WATER EQUIPMENT TEMP SCHED_dy_1,WATER EQUIPMENT TEMP SCHED_dy_1,WATER EQUIPMENT TEMP SCHED_dy_1,WATER EQUIPMENT TEMP SCHED_dy_1
Schedule:Week:Daily,SWHSYS1 WATER HEATER AMBIENT TEMPERATURE SCHEDULE NAME_wk_1,SWHSYS1 WATER HEATER AMBIENT TEMPERATURE SCHEDULE NAME_dy_1,SWHSYS1 WATER HEATER AMBIENT TEMPERATURE SCHEDULE NAME_dy_1,SWHSYS1 WATER HEATER AMBIENT TEMPERATURE SCHEDULE NAME_dy_1,SWHSYS1 WATER HEATER AMBIENT TEMPERATURE SCHEDULE NAME_dy_1,SWHSYS1 WATER HEATER AMBIENT TEMPERATURE SCHEDULE NAME_dy_1,SWHSYS1 WATER HEATER AMBIENT TEMPERATURE SCHEDULE NAME_dy_1,SWHSYS1 WATER HEATER AMBIENT TEMPERATURE SCHEDULE NAME_dy_1,SWHSYS1 WATER HEATER AMBIENT TEMPERATURE SCHEDULE NAME_dy_1,SWHSYS1 WATER HEATER AMBIENT TEMPERATURE SCHEDULE NAME_dy_1,SWHSYS1 WATER HEATER AMBIENT TEMPERATURE SCHEDULE NAME_dy_1,SWHSYS1 WATER HEATER AMBIENT TEMPERATURE SCHEDULE NAME_dy_1,SWHSYS1 WATER HEATER AMBIENT TEMPERATURE SCHEDULE NAME_dy_1
Schedule:Week:Daily,SWHSYS1 WATER HEATER SETPOINT TEMPERATURE SCHEDULE NAME_wk_1,SWHSYS1 WATER HEATER SETPOINT TEMPERATURE SCHEDULE NAME_dy_1,SWHSYS1 WATER HEATER SETPOINT TEMPERATURE SCHEDULE NAME_dy_1,SWHSYS1 WATER HEATER SETPOINT TEMPERATURE SCHEDULE NAME_dy_1,SWHSYS1 WATER HEATER SETPOINT TEMPERATURE SCHEDULE NAME_dy_1,SWHSYS1 WATER HEATER SETPOINT TEMPERATURE SCHEDULE NAME_dy_1,SWHSYS1 WATER HEATER SETPOINT TEMPERATURE SCHEDULE NAME_dy_1,SWHSYS1 WATER HEATER SETPOINT TEMPERATURE SCHEDULE NAME_dy_1,SWHSYS1 WATER HEATER SETPOINT TEMPERATURE SCHEDULE NAME_dy_1,SWHSYS1 WATER HEATER SETPOINT TEMPERATURE SCHEDULE NAME_dy_1,SWHSYS1 WATER HEATER SETPOINT TEMPERATURE SCHEDULE NAME_dy_1,SWHSYS1 WATER HEATER SETPOINT TEMPERATURE SCHEDULE NAME_dy_1,SWHSYS1 WATER HEATER SETPOINT TEMPERATURE SCHEDULE NAME_dy_1
Schedule:Week:Daily,SWHSYS1-LOOP-TEMP-SCHEDULE_wk_1,SWHSYS1-LOOP-TEMP-SCHEDULE_dy_1,SWHSYS1-LOOP-TEMP-SCHEDULE_dy_1,SWHSYS1-LOOP-TEMP-SCHEDULE_dy_1,SWHSYS1-LOOP-TEMP-SCHEDULE_dy_1,SWHSYS1-LOOP-TEMP-SCHEDULE_dy_1,SWHSYS1-LOOP-TEMP-SCHEDULE_dy_1,SWHSYS1-LOOP-TEMP-SCHEDULE_dy_1,SWHSYS1-LOOP-TEMP-SCHEDULE_dy_1,SWHSYS1-LOOP-TEMP-SCHEDULE_dy_1,SWHSYS1-LOOP-TEMP-SCHEDULE_dy_1,SWHSYS1-LOOP-TEMP-SCHEDULE_dy_1,SWHSYS1-LOOP-TEMP-SCHEDULE_dy_1
Schedule,ALWAYS_ON,ON/OFF,Through Dec 31,ALWAYS_ON_wk_1
Schedule,KITCHEN_EXHAUST_SCH,FRACTION,Through Dec 31,KITCHEN_EXHAUST_SCH_wk_1
Schedule,ADMIN_EQUIP_SCH,FRACTION,Through Dec 31,ADMIN_EQUIP_SCH_wk_1
Schedule,ADMIN_LIGHT_SCH,FRACTION,Through Dec 31,ADMIN_LIGHT_SCH_wk_1
Schedule,ADMIN_OCC_SCH,FRACTION,Through Dec 31,ADMIN_OCC_SCH_wk_1
Schedule,BLDG_ELEVATORS,FRACTION,Through Dec 31,BLDG_ELEVATORS_wk_1
Schedule,BLDG_LIGHT_SCH,FRACTION,Through Dec 31,BLDG_LIGHT_SCH_wk_1
Schedule,CRITICAL_EQUIP_SCH,FRACTION,Through Dec 31,CRITICAL_EQUIP_SCH_wk_1
Schedule,CRITICAL_LIGHT_SCH,FRACTION,Through Dec 31,CRITICAL_LIGHT_SCH_wk_1
Schedule,CRITICAL_OCC_SCH,FRACTION,Through Dec 31,CRITICAL_OCC_SCH_wk_1
Schedule,INFIL_QUARTER_ON_SCH,FRACTION,Through Dec 31,INFIL_QUARTER_ON_SCH_wk_1
Schedule,KITCHEN_ELEC_EQUIP_SCH,FRACTION,Through Dec 31,KITCHEN_ELEC_EQUIP_SCH_wk_1
Schedule,KITCHEN_GAS_EQUIP_SCH,FRACTION,Through Dec 31,KITCHEN_GAS_EQUIP_SCH_wk_1
Schedule,WORK_EFF_SCH,FRACTION,Through Dec 31,WORK_EFF_SCH_wk_1
Schedule,CLOTHING_SCH,ANY NUMBER,Through Apr 30,CLOTHING_SCH_wk_1,Through Sep 30,CLOTHING_SCH_wk_2,Through Dec 31,CLOTHING_SCH_wk_3
Schedule,ACTIVITY_SCH,ANY NUMBER,Through Dec 31,ACTIVITY_SCH_wk_1
Schedule,AIR_VELO_SCH,ANY NUMBER,Through Dec 31,AIR_VELO_SCH_wk_1
Schedule,ADMIN_CLGSETP_SCH,TEMPERATURE,Through Dec 31,ADMIN_CLGSETP_SCH_wk_1
Schedule,ADMIN_HTGSETP_SCH,TEMPERATURE,Through Dec 31,ADMIN_HTGSETP_SCH_wk_1
Schedule,KITCHEN_CLGSETP_SCH,TEMPERATURE,Through Dec 31,KITCHEN_CLGSETP_SCH_wk_1
Schedule,KITCHEN_HTGSETP_SCH,TEMPERATURE,Through Dec 31,KITCHEN_HTGSETP_SCH_wk_1
Schedule,CRITICAL_CLGSETP_SCH,TEMPERATURE,Through Dec 31,CRITICAL_CLGSETP_SCH_wk_1
Schedule,CRITICAL_HTGSETP_SCH,TEMPERATURE,Through Dec 31,CRITICAL_HTGSETP_SCH_wk_1
Schedule,OR_CLGSETP_SCH,TEMPERATURE,Through Dec 31,OR_CLGSETP_SCH_wk_1
Schedule,OR_HTGSETP_SCH,TEMPERATURE,Through Dec 31,OR_HTGSETP_SCH_wk_1
Schedule,DUAL ZONE CONTROL TYPE SCHED,CONTROL TYPE,Through Dec 31,DUAL ZONE CONTROL TYPE SCHED_wk_1
Schedule,MAXRELHUMSETSCH,HUMIDITY,Through Dec 31,MAXRELHUMSETSCH_wk_1
Schedule,MINRELHUMSETSCH,HUMIDITY,Through Dec 31,MINRELHUMSETSCH_wk_1
Schedule,CAV_SAT_SCH,TEMPERATURE,Through Dec 31,CAV_SAT_SCH_wk_1
Schedule,HEATING-SUPPLY-AIR-TEMP-SCH,TEMPERATURE,Through Dec 31,HEATING-SUPPLY-AIR-TEMP-SCH_wk_1
Schedule,SEASONAL-RESET-SUPPLY-AIR-TEMP-SCH,TEMPERATURE,Through Dec 31,SEASONAL-RESET-SUPPLY-AIR-TEMP-SCH_wk_1
Schedule,HVACOPERATIONSCHD,ON/OFF,Through Dec 31,HVACOPERATIONSCHD_wk_1
Schedule,CAV_OAMINFRACSCHEDULE,FRACTION,Through Dec 31,CAV_OAMINFRACSCHEDULE_wk_1
Schedule,VAV_OAMINFRACSCHEDULE,FRACTION,Through Dec 31,VAV_OAMINFRACSCHEDULE_wk_1
Schedule,CW-LOOP-TEMP-SCHEDULE,TEMPERATURE,Through Dec 31,CW-LOOP-TEMP-SCHEDULE_wk_1
Schedule,HW-LOOP-TEMP-SCHEDULE,TEMPERATURE,Through Dec 31,HW-LOOP-TEMP-SCHEDULE_wk_1
Schedule,PLANTONSCHED,ON/OFF,Through Dec 31,PLANTONSCHED_wk_1
Schedule,KITCHEN_FLR_5_CASE:1_WALKINFREEZER_CASECREDITREDUXSCHED,FRACTION,Through Dec 31,KITCHEN_FLR_5_CASE:1_WALKINFREEZER_CASECREDITREDUXSCHED_wk_1
Schedule,KITCHEN_FLR_5_CASE:1_WALKINFREEZER_CASEDEFROST2ADAYSCHED,ON/OFF,Through Dec 31,KITCHEN_FLR_5_CASE:1_WALKINFREEZER_CASEDEFROST2ADAYSCHED_wk_1
Schedule,KITCHEN_FLR_5_CASE:1_WALKINFREEZER_CASEDRIPDOWN2ADAYSCHED,ON/OFF,Through Dec 31,KITCHEN_FLR_5_CASE:1_WALKINFREEZER_CASEDRIPDOWN2ADAYSCHED_wk_1
Schedule,KITCHEN_FLR_5_CASE:1_WALKINFREEZER_WALKINSTOCKINGSCHED,ANY NUMBER,Through Dec 31,KITCHEN_FLR_5_CASE:1_WALKINFREEZER_WALKINSTOCKINGSCHED_wk_1
Schedule,KITCHEN_FLR_5_CASE:2_SELFCONTAINEDDISPLAYCASE_CASESTOCKINGSCHED,ANY NUMBER,Through Dec 31,KITCHEN_FLR_5_CASE:2_SELFCONTAINEDDISPLAYCASE_CASESTOCKINGSCHED_wk_1
Schedule,BLDG_SWH_EXTD_SCH,FRACTION,Through Dec 31,BLDG_SWH_EXTD_SCH_wk_1
Schedule,BLDG_SWH_SCH,FRACTION,Through Dec 31,BLDG_SWH_SCH_wk_1
Schedule,WATER EQUIPMENT HOT SUPPLY TEMP SCHED,TEMPERATURE,Through Dec 31,WATER EQUIPMENT HOT SUPPLY TEMP SCHED_wk_1
Schedule,WATER EQUIPMENT LATENT FRACT SCHED,FRACTION,Through Dec 31,WATER EQUIPMENT LATENT FRACT SCHED_wk_1
Schedule,WATER EQUIPMENT SENSIBLE FRACT SCHED,FRACTION,Through Dec 31,WATER EQUIPMENT SENSIBLE FRACT SCHED_wk_1
Schedule,WATER EQUIPMENT TEMP SCHED,TEMPERATURE,Through Dec 31,WATER EQUIPMENT TEMP SCHED_wk_1
Schedule,SWHSYS1 WATER HEATER AMBIENT TEMPERATURE SCHEDULE NAME,TEMPERATURE,Through Dec 31,SWHSYS1 WATER HEATER AMBIENT TEMPERATURE SCHEDULE NAME_wk_1
Schedule,SWHSYS1 WATER HEATER SETPOINT TEMPERATURE SCHEDULE NAME,TEMPERATURE,Through Dec 31,SWHSYS1 WATER HEATER SETPOINT TEMPERATURE SCHEDULE NAME_wk_1
Schedule,SWHSYS1-LOOP-TEMP-SCHEDULE,TEMPERATURE,Through Dec 31,SWHSYS1-LOOP-TEMP-SCHEDULE_wk_1
! <Building Information>, Building Name,North Axis {deg},Terrain,  Loads Convergence Tolerance Value,Temperature Convergence Tolerance Value,  Solar Distribution,Maximum Number of Warmup Days,Minimum Number of Warmup Days
 Building Information,Ref Bldg Hospital New2004_v1.3_5.0,0.000,City,4.00000E-002,0.20000,FullInteriorAndExterior,25,6
! <Inside Convection Algorithm>, Algorithm {Simple | TARP | CeilingDiffuser | AdaptiveConvectionAlgorithm}
Inside Convection Algorithm,TARP
! <Outside Convection Algorithm>, Algorithm {SimpleCombined | TARP | MoWitt | DOE-2 | AdaptiveConvectionAlgorithm}
Outside Convection Algorithm,DOE-2
! <Sky Radiance Distribution>, Value {Anisotropic}
Sky Radiance Distribution,Anisotropic
! <Zone Air Solution Algorithm>, Value {ThirdOrderBackwardDifference | AnalyticalSolution | EulerMethod}
 Zone Air Solution Algorithm, AnalyticalSolution
! <Zone Air Carbon Dioxide Balance Simulation>, Simulation {Yes/No}, Carbon Dioxide Concentration
 Zone Air Carbon Dioxide Balance Simulation, No,N/A
! <Zone Air Generic Contaminant Balance Simulation>, Simulation {Yes/No}, Generic Contaminant Concentration
 Zone Air Generic Contaminant Balance Simulation, No,N/A
! <Zone Air Mass Flow Balance Simulation>, Enforce Mass Balance, Adjust Zone Mixing, Adjust Zone Infiltration {AddInfiltration | AdjustInfiltration | None}, Infiltration Zones {MixingSourceZonesOnly | AllZones}
 Zone Air Mass Flow Balance Simulation, No,N/A,N/A,N/A
! <HVACSystemRootFindingAlgorithm>, Value {RegulaFalsi | Bisection | BisectionThenRegulaFalsi | RegulaFalsiThenBisection}
 HVACSystemRootFindingAlgorithm, RegulaFalsi
! <Environment:Site Atmospheric Variation>,Wind Speed Profile Exponent {},Wind Speed Profile Boundary Layer Thickness {m},Air Temperature Gradient Coefficient {K/m}
Environment:Site Atmospheric Variation,0.330,460.000,6.500000E-003
! <Surface Geometry>,Starting Corner,Vertex Input Direction,Coordinate System,Daylight Reference Point Coordinate System,Rectangular (Simple) Surface Coordinate System
 Surface Geometry,UpperLeftCorner,Counterclockwise,RelativeCoordinateSystem,RelativeCoordinateSystem,RelativeToZoneOrigin
! <Surface Heat Transfer Algorithm>, Value {CTF - ConductionTransferFunction | EMPD - MoisturePenetrationDepthConductionTransferFunction | CondFD - ConductionFiniteDifference | HAMT - CombinedHeatAndMoistureFiniteElement} - Description,Inside Surface Max Temperature Limit{C}, Surface Convection Coefficient Lower Limit {W/m2-K}, Surface Convection Coefficient Upper Limit {W/m2-K}
Surface Heat Transfer Algorithm, CTF - ConductionTransferFunction,200,0.10,1000.0
! <Shading Summary>, Number of Fixed Detached Shades, Number of Building Detached Shades, Number of Attached Shades
 Shading Summary,0,2,0
! <Zone Summary>, Number of Zones, Number of Zone Surfaces, Number of SubSurfaces
 Zone Summary,55,497,40
! <Zone Information>,Zone Name,North Axis {deg},Origin X-Coordinate {m},Origin Y-Coordinate {m},Origin Z-Coordinate {m},Centroid X-Coordinate {m},Centroid Y-Coordinate {m},Centroid Z-Coordinate {m},Type,Zone Multiplier,Zone List Multiplier,Minimum X {m},Maximum X {m},Minimum Y {m},Maximum Y {m},Minimum Z {m},Maximum Z {m},Ceiling Height {m},Volume {m3},Zone Inside Convection Algorithm {Simple-Detailed-CeilingDiffuser-TrombeWall},Zone Outside Convection Algorithm {Simple-Detailed-Tarp-MoWitt-DOE-2-BLAST}, Floor Area {m2},Exterior Gross Wall Area {m2},Exterior Net Wall Area {m2},Exterior Window Area {m2}, Number of Surfaces, Number of SubSurfaces, Number of Shading SubSurfaces,  Part of Total Building Area
 Zone Information, BASEMENT,0.0,0.00,0.00,0.00,35.05,26.67,-1.22,1,1,1,0.00,70.10,0.00,53.34,-2.44,0.00,2.44,9120.27,TARP,DOE-2,3739.35,0.00,0.00,0.00,6,0,0,Yes
 Zone Information, CORRIDOR_FLR_1,0.0,0.00,0.00,0.00,34.29,26.67,2.13,1,1,1,28.96,39.62,0.00,53.34,0.00,4.27,4.27,2428.80,TARP,DOE-2,569.03,91.07,91.07,0.00,7,0,0,Yes
 Zone Information, CORRIDOR_FLR_2,0.0,0.00,0.00,0.00,34.29,26.67,6.40,1,1,1,28.96,39.62,0.00,53.34,4.27,8.54,4.27,2428.80,TARP,DOE-2,569.03,91.07,91.07,0.00,6,0,0,Yes
 Zone Information, CORRIDOR_FLR_5,0.0,0.00,0.00,0.00,21.12,34.61,19.21,1,1,1,9.14,39.62,0.00,53.34,17.07,21.34,4.27,2141.31,TARP,DOE-2,501.68,78.06,78.06,0.00,10,0,0,Yes
 Zone Information, CORRIDOR_NW_FLR_3,0.0,0.00,0.00,0.00,28.14,40.30,10.67,1,1,1,4.57,65.53,10.67,53.34,8.54,12.80,4.27,2418.88,TARP,DOE-2,566.71,45.53,45.53,0.00,15,0,0,Yes
 Zone Information, CORRIDOR_NW_FLR_4,0.0,0.00,0.00,0.00,28.14,40.30,14.94,1,1,1,4.57,65.53,10.67,53.34,12.80,17.07,4.27,2418.88,TARP,DOE-2,566.71,45.53,45.53,0.00,15,0,0,Yes
 Zone Information, CORRIDOR_SE_FLR_3,0.0,0.00,0.00,0.00,41.59,13.04,10.67,1,1,1,4.57,65.53,0.00,42.67,8.54,12.80,4.27,2418.88,TARP,DOE-2,566.71,45.53,45.53,0.00,15,0,0,Yes
 Zone Information, CORRIDOR_SE_FLR_4,0.0,0.00,0.00,0.00,41.59,13.04,14.94,1,1,1,4.57,65.53,0.00,42.67,12.80,17.07,4.27,2418.88,TARP,DOE-2,566.71,45.53,45.53,0.00,15,0,0,Yes
 Zone Information, DINING_FLR_5,0.0,0.00,0.00,0.00,54.86,11.43,19.21,1,1,1,39.62,70.10,0.00,22.86,17.07,21.34,4.27,2974.04,TARP,DOE-2,696.77,227.67,191.91,35.76,6,1,0,Yes
 Zone Information, ER_EXAM1_MULT4_FLR_1,0.0,0.00,0.00,0.00,42.67,2.29,2.13,1,4,1,39.62,45.72,0.00,4.57,0.00,4.27,4.27,118.96,TARP,DOE-2,27.87,26.02,26.02,0.00,6,0,0,Yes
 Zone Information, ER_EXAM3_MULT4_FLR_1,0.0,0.00,0.00,0.00,67.06,6.86,2.13,1,4,1,64.01,70.10,4.57,9.14,0.00,4.27,4.27,118.96,TARP,DOE-2,27.87,19.51,19.51,0.00,6,0,0,Yes
 Zone Information, ER_NURSESTN_LOBBY_FLR_1,0.0,0.00,0.00,0.00,58.35,26.67,2.13,1,1,1,39.62,70.10,4.57,48.77,0.00,4.27,4.27,5273.96,TARP,DOE-2,1235.61,110.58,80.16,30.42,10,1,0,Yes
 Zone Information, ER_TRAUMA1_FLR_1,0.0,0.00,0.00,0.00,67.06,2.29,2.13,1,1,1,64.01,70.10,0.00,4.57,0.00,4.27,4.27,118.96,TARP,DOE-2,27.87,45.53,45.53,0.00,6,0,0,Yes
 Zone Information, ER_TRAUMA2_FLR_1,0.0,0.00,0.00,0.00,67.06,51.05,2.13,1,1,1,64.01,70.10,48.77,53.34,0.00,4.27,4.27,118.96,TARP,DOE-2,27.87,45.53,45.53,0.00,6,0,0,Yes
 Zone Information, ER_TRIAGE_MULT4_FLR_1,0.0,0.00,0.00,0.00,42.67,51.05,2.13,1,4,1,39.62,45.72,48.77,53.34,0.00,4.27,4.27,118.96,TARP,DOE-2,27.87,26.02,26.02,0.00,6,0,0,Yes
 Zone Information, ICU_FLR_2,0.0,0.00,0.00,0.00,14.48,10.67,6.40,1,1,1,0.00,28.96,0.00,21.34,4.27,8.54,4.27,2637.66,TARP,DOE-2,617.96,214.68,189.65,25.03,6,1,0,Yes
 Zone Information, ICU_NURSESTN_LOBBY_FLR_2,0.0,0.00,0.00,0.00,16.76,35.05,6.40,1,1,1,4.57,28.96,21.34,48.77,4.27,8.54,4.27,2854.50,TARP,DOE-2,668.77,0.00,0.00,0.00,6,0,0,Yes
 Zone Information, IC_PATROOM1_MULT5_FLR_2,0.0,0.00,0.00,0.00,26.67,51.05,6.40,1,5,1,24.38,28.96,48.77,53.34,4.27,8.54,4.27,89.22,TARP,DOE-2,20.90,19.51,14.61,4.91,6,1,0,Yes
 Zone Information, IC_PATROOM2_FLR_2,0.0,0.00,0.00,0.00,3.05,51.05,6.40,1,1,1,0.00,6.10,48.77,53.34,4.27,8.54,4.27,118.96,TARP,DOE-2,27.87,45.53,34.09,11.44,6,2,0,Yes
 Zone Information, IC_PATROOM3_MULT6_FLR_2,0.0,0.00,0.00,0.00,2.29,46.48,6.40,1,6,1,0.00,4.57,44.20,48.77,4.27,8.54,4.27,89.22,TARP,DOE-2,20.90,19.51,14.61,4.91,6,1,0,Yes
 Zone Information, KITCHEN_FLR_5,0.0,0.00,0.00,0.00,54.86,38.10,19.21,1,1,1,39.62,70.10,22.86,53.34,17.07,21.34,4.27,3965.38,TARP,DOE-2,929.03,260.20,260.20,0.00,7,0,0,Yes
 Zone Information, LAB_FLR_3,0.0,0.00,0.00,0.00,17.40,20.75,10.67,1,1,1,9.14,28.96,10.67,33.58,8.54,12.80,4.27,1130.13,TARP,DOE-2,264.77,0.00,0.00,0.00,8,0,0,Yes
 Zone Information, LAB_FLR_4,0.0,0.00,0.00,0.00,17.40,20.75,14.94,1,1,1,9.14,28.96,10.67,33.58,12.80,17.07,4.27,1130.13,TARP,DOE-2,264.77,0.00,0.00,0.00,8,0,0,Yes
 Zone Information, LOBBY_RECORDS_FLR_1,0.0,0.00,0.00,0.00,14.17,16.75,2.13,1,1,1,0.00,28.96,0.00,53.34,0.00,4.27,4.27,6294.93,TARP,DOE-2,1474.81,409.78,347.15,62.63,11,1,0,Yes
 Zone Information, NURSESTN_LOBBY_FLR_3,0.0,0.00,0.00,0.00,31.62,25.31,10.67,1,1,1,9.14,60.96,10.67,42.67,8.54,12.80,4.27,3866.25,TARP,DOE-2,905.80,0.00,0.00,0.00,12,0,0,Yes
 Zone Information, NURSESTN_LOBBY_FLR_4,0.0,0.00,0.00,0.00,31.62,25.31,14.94,1,1,1,9.14,60.96,10.67,42.67,12.80,17.07,4.27,3866.25,TARP,DOE-2,905.80,0.00,0.00,0.00,12,0,0,Yes
 Zone Information, NURSESTN_LOBBY_FLR_5,0.0,0.00,0.00,0.00,27.43,21.34,19.21,1,1,1,15.24,39.62,0.00,42.67,17.07,21.34,4.27,4441.23,TARP,DOE-2,1040.51,104.08,104.08,0.00,7,0,0,Yes
 Zone Information, OR1_FLR_2,0.0,0.00,0.00,0.00,65.53,50.29,6.40,1,1,1,60.96,70.10,47.24,53.34,4.27,8.54,4.27,237.92,TARP,DOE-2,55.74,65.05,65.05,0.00,6,0,0,Yes
 Zone Information, OR2_MULT5_FLR_2,0.0,0.00,0.00,0.00,65.53,44.20,6.40,1,5,1,60.96,70.10,41.15,47.24,4.27,8.54,4.27,237.92,TARP,DOE-2,55.74,26.02,26.02,0.00,6,0,0,Yes
 Zone Information, OR3_FLR_2,0.0,0.00,0.00,0.00,44.20,50.29,6.40,1,1,1,39.62,48.77,47.24,53.34,4.27,8.54,4.27,237.92,TARP,DOE-2,55.74,39.03,39.03,0.00,6,0,0,Yes
 Zone Information, OR4_FLR_2,0.0,0.00,0.00,0.00,44.20,35.05,6.40,1,1,1,39.62,48.77,22.86,47.24,4.27,8.54,4.27,951.69,TARP,DOE-2,222.97,0.00,0.00,0.00,6,0,0,Yes
 Zone Information, OR_NURSESTN_LOBBY_FLR_2,0.0,0.00,0.00,0.00,54.78,23.18,6.40,1,1,1,39.62,70.10,0.00,53.34,4.27,8.54,4.27,4322.26,TARP,DOE-2,1012.64,182.14,146.37,35.76,10,1,0,Yes
 Zone Information, OFFICE1_FLR_5,0.0,0.00,0.00,0.00,4.57,3.81,19.21,1,1,1,0.00,9.14,0.00,7.62,17.07,21.34,4.27,297.48,TARP,DOE-2,69.70,71.56,53.58,17.98,6,2,0,Yes
 Zone Information, OFFICE1_MULT4_FLR_1,0.0,0.00,0.00,0.00,7.62,2.29,2.13,1,4,1,6.10,9.14,0.00,4.57,0.00,4.27,4.27,59.48,TARP,DOE-2,13.94,13.01,10.05,2.96,6,1,0,Yes
 Zone Information, OFFICE2_MULT5_FLR_5,0.0,0.00,0.00,0.00,4.57,11.43,19.21,1,5,1,0.00,9.14,7.62,15.24,17.07,21.34,4.27,297.35,TARP,DOE-2,69.68,32.52,24.34,8.17,6,1,0,Yes
 Zone Information, OFFICE3_FLR_5,0.0,0.00,0.00,0.00,4.57,49.53,19.21,1,1,1,0.00,9.14,45.72,53.34,17.07,21.34,4.27,297.40,TARP,DOE-2,69.68,71.55,53.57,17.98,6,2,0,Yes
 Zone Information, OFFICE4_MULT6_FLR_5,0.0,0.00,0.00,0.00,10.67,51.05,19.21,1,6,1,9.14,12.19,48.77,53.34,17.07,21.34,4.27,59.48,TARP,DOE-2,13.94,13.01,10.05,2.96,6,1,0,Yes
 Zone Information, PATROOM1_MULT10_FLR_3,0.0,0.00,0.00,0.00,41.91,2.29,10.67,1,10,1,39.62,44.20,0.00,4.57,8.54,12.80,4.27,89.22,TARP,DOE-2,20.90,19.51,14.61,4.91,6,1,0,Yes
 Zone Information, PATROOM1_MULT10_FLR_4,0.0,0.00,0.00,0.00,41.91,2.29,14.94,1,10,1,39.62,44.20,0.00,4.57,12.80,17.07,4.27,89.22,TARP,DOE-2,20.90,19.51,14.61,4.91,6,1,0,Yes
 Zone Information, PATROOM2_FLR_3,0.0,0.00,0.00,0.00,66.29,2.29,10.67,1,1,1,62.48,70.10,0.00,4.57,8.54,12.80,4.27,148.70,TARP,DOE-2,34.84,52.04,38.96,13.08,6,2,0,Yes
 Zone Information, PATROOM2_FLR_4,0.0,0.00,0.00,0.00,66.29,2.29,14.94,1,1,1,62.48,70.10,0.00,4.57,12.80,17.07,4.27,148.70,TARP,DOE-2,34.84,52.04,38.96,13.08,6,2,0,Yes
 Zone Information, PATROOM3_MULT10_FLR_3,0.0,0.00,0.00,0.00,67.82,6.78,10.67,1,10,1,65.53,70.10,4.57,8.99,8.54,12.80,4.27,86.25,TARP,DOE-2,20.21,18.87,14.13,4.74,6,1,0,Yes
 Zone Information, PATROOM3_MULT10_FLR_4,0.0,0.00,0.00,0.00,67.82,6.78,14.94,1,10,1,65.53,70.10,4.57,8.99,12.80,17.07,4.27,86.25,TARP,DOE-2,20.21,18.87,14.13,4.74,6,1,0,Yes
 Zone Information, PATROOM4_FLR_3,0.0,0.00,0.00,0.00,66.29,51.05,10.67,1,1,1,62.48,70.10,48.77,53.34,8.54,12.80,4.27,148.70,TARP,DOE-2,34.84,52.04,38.96,13.08,6,2,0,Yes
 Zone Information, PATROOM4_FLR_4,0.0,0.00,0.00,0.00,66.29,51.05,14.94,1,1,1,62.48,70.10,48.77,53.34,12.80,17.07,4.27,148.70,TARP,DOE-2,34.84,52.04,38.96,13.08,6,2,0,Yes
 Zone Information, PATROOM5_MULT10_FLR_3,0.0,0.00,0.00,0.00,41.91,51.05,10.67,1,10,1,39.62,44.20,48.77,53.34,8.54,12.80,4.27,89.22,TARP,DOE-2,20.90,19.51,14.61,4.91,6,1,0,Yes
 Zone Information, PATROOM5_MULT10_FLR_4,0.0,0.00,0.00,0.00,41.91,51.05,14.94,1,10,1,39.62,44.20,48.77,53.34,12.80,17.07,4.27,89.22,TARP,DOE-2,20.90,19.51,14.61,4.91,6,1,0,Yes
 Zone Information, PATROOM6_FLR_3,0.0,0.00,0.00,0.00,3.05,2.29,10.67,1,1,1,0.00,6.10,0.00,4.57,8.54,12.80,4.27,118.96,TARP,DOE-2,27.87,45.53,34.09,11.44,6,2,0,Yes
 Zone Information, PATROOM6_FLR_4,0.0,0.00,0.00,0.00,3.05,2.29,14.94,1,1,1,0.00,6.10,0.00,4.57,12.80,17.07,4.27,118.96,TARP,DOE-2,27.87,45.53,34.09,11.44,6,2,0,Yes
 Zone Information, PATROOM7_MULT10_FLR_3,0.0,0.00,0.00,0.00,2.29,6.78,10.67,1,10,1,0.00,4.57,4.57,8.99,8.54,12.80,4.27,86.25,TARP,DOE-2,20.21,18.87,14.13,4.74,6,1,0,Yes
 Zone Information, PATROOM7_MULT10_FLR_4,0.0,0.00,0.00,0.00,2.29,6.78,14.94,1,10,1,0.00,4.57,4.57,8.99,12.80,17.07,4.27,86.25,TARP,DOE-2,20.21,18.87,14.13,4.74,6,1,0,Yes
 Zone Information, PATROOM8_FLR_3,0.0,0.00,0.00,0.00,3.05,51.05,10.67,1,1,1,0.00,6.10,48.77,53.34,8.54,12.80,4.27,118.96,TARP,DOE-2,27.87,45.53,34.09,11.44,6,2,0,Yes
 Zone Information, PATROOM8_FLR_4,0.0,0.00,0.00,0.00,3.05,51.05,14.94,1,1,1,0.00,6.10,48.77,53.34,12.80,17.07,4.27,118.96,TARP,DOE-2,27.87,45.53,34.09,11.44,6,2,0,Yes
 Zone Information, PHYSTHERAPY_FLR_3,0.0,0.00,0.00,0.00,50.29,31.24,10.67,1,1,1,39.62,60.96,19.81,42.67,8.54,12.80,4.27,2081.82,TARP,DOE-2,487.74,0.00,0.00,0.00,6,0,0,Yes
 Zone Information, RADIOLOGY_FLR_4,0.0,0.00,0.00,0.00,50.29,31.24,14.94,1,1,1,39.62,60.96,19.81,42.67,12.80,17.07,4.27,2081.82,TARP,DOE-2,487.74,0.00,0.00,0.00,6,0,0,Yes
! <Zone Internal Gains Nominal>,Zone Name, Floor Area {m2},# Occupants,Area per Occupant {m2/person},Occupant per Area {person/m2},Interior Lighting {W/m2},Electric Load {W/m2},Gas Load {W/m2},Other Load {W/m2},Hot Water Eq {W/m2},Steam Equipment {W/m2},Sum Loads per Area {W/m2},Outdoor Controlled Baseboard Heat
 Zone Internal Gains Nominal, BASEMENT,3739.35,100.6,37.175,2.690E-002,11.840,8.070,0.000,0.000,0.000,0.000,19.910,No
 Zone Internal Gains Nominal, CORRIDOR_FLR_1,569.03,6.1,92.593,1.080E-002,10.760,0.000,0.000,0.000,0.000,0.000,10.760,No
 Zone Internal Gains Nominal, CORRIDOR_FLR_2,569.03,6.1,92.593,1.080E-002,10.760,0.000,0.000,0.000,0.000,0.000,10.760,No
 Zone Internal Gains Nominal, CORRIDOR_FLR_5,501.68,5.4,92.593,1.080E-002,10.760,0.000,0.000,0.000,0.000,0.000,10.760,No
 Zone Internal Gains Nominal, CORRIDOR_NW_FLR_3,566.71,6.1,92.593,1.080E-002,10.760,0.000,0.000,0.000,0.000,0.000,10.760,No
 Zone Internal Gains Nominal, CORRIDOR_NW_FLR_4,566.71,6.1,92.593,1.080E-002,10.760,0.000,0.000,0.000,0.000,0.000,10.760,No
 Zone Internal Gains Nominal, CORRIDOR_SE_FLR_3,566.71,6.1,92.593,1.080E-002,10.760,0.000,0.000,0.000,0.000,0.000,10.760,No
 Zone Internal Gains Nominal, CORRIDOR_SE_FLR_4,566.71,6.1,92.593,1.080E-002,10.760,0.000,0.000,0.000,0.000,0.000,10.760,No
 Zone Internal Gains Nominal, DINING_FLR_5,696.77,75.0,9.294,0.108,9.680,10.760,0.000,0.000,0.000,0.000,20.440,No
 Zone Internal Gains Nominal, ER_EXAM1_MULT4_FLR_1,27.87,6.0,4.651,0.215,29.050,16.040,0.000,0.000,0.000,0.000,45.090,No
 Zone Internal Gains Nominal, ER_EXAM3_MULT4_FLR_1,27.87,6.0,4.651,0.215,29.050,16.040,0.000,0.000,0.000,0.000,45.090,No
 Zone Internal Gains Nominal, ER_NURSESTN_LOBBY_FLR_1,1235.61,17.7,69.930,1.430E-002,12.050,14.630,0.000,0.000,0.000,0.000,26.680,No
 Zone Internal Gains Nominal, ER_TRAUMA1_FLR_1,27.87,6.0,4.651,0.215,29.050,43.040,0.000,0.000,0.000,0.000,72.090,No
 Zone Internal Gains Nominal, ER_TRAUMA2_FLR_1,27.87,6.0,4.651,0.215,29.050,43.040,0.000,0.000,0.000,0.000,72.090,No
 Zone Internal Gains Nominal, ER_TRIAGE_MULT4_FLR_1,27.87,6.0,4.651,0.215,29.050,29.050,0.000,0.000,0.000,0.000,58.100,No
 Zone Internal Gains Nominal, ICU_FLR_2,617.96,33.2,18.587,5.380E-002,8.610,32.280,0.000,0.000,0.000,0.000,40.890,No
 Zone Internal Gains Nominal, ICU_NURSESTN_LOBBY_FLR_2,668.77,9.6,69.930,1.430E-002,12.050,21.520,0.000,0.000,0.000,0.000,33.570,No
 Zone Internal Gains Nominal, IC_PATROOM1_MULT5_FLR_2,20.90,1.1,18.587,5.380E-002,8.610,32.280,0.000,0.000,0.000,0.000,40.890,No
 Zone Internal Gains Nominal, IC_PATROOM2_FLR_2,27.87,1.5,18.587,5.380E-002,8.610,32.280,0.000,0.000,0.000,0.000,40.890,No
 Zone Internal Gains Nominal, IC_PATROOM3_MULT6_FLR_2,20.90,1.1,18.587,5.380E-002,8.610,32.280,0.000,0.000,0.000,0.000,40.890,No
 Zone Internal Gains Nominal, KITCHEN_FLR_5,929.03,50.0,18.587,5.380E-002,12.910,81.696,304.870,0.000,0.000,0.000,399.476,No
 Zone Internal Gains Nominal, LAB_FLR_3,264.77,14.2,18.587,5.380E-002,15.060,43.040,0.000,0.000,0.000,0.000,58.100,No
 Zone Internal Gains Nominal, LAB_FLR_4,264.77,14.2,18.587,5.380E-002,15.060,43.040,0.000,0.000,0.000,0.000,58.100,No
 Zone Internal Gains Nominal, LOBBY_RECORDS_FLR_1,1474.81,21.1,69.930,1.430E-002,15.820,1.080,0.000,0.000,0.000,0.000,16.900,No
 Zone Internal Gains Nominal, NURSESTN_LOBBY_FLR_3,905.80,13.0,69.930,1.430E-002,12.700,11.190,0.000,0.000,0.000,0.000,23.890,No
 Zone Internal Gains Nominal, NURSESTN_LOBBY_FLR_4,905.80,13.0,69.930,1.430E-002,12.700,11.190,0.000,0.000,0.000,0.000,23.890,No
 Zone Internal Gains Nominal, NURSESTN_LOBBY_FLR_5,1040.51,14.9,69.930,1.430E-002,12.700,11.190,0.000,0.000,0.000,0.000,23.890,No
 Zone Internal Gains Nominal, OR1_FLR_2,55.74,3.0,18.587,5.380E-002,23.670,43.040,0.000,0.000,0.000,0.000,66.710,No
 Zone Internal Gains Nominal, OR2_MULT5_FLR_2,55.74,3.0,18.587,5.380E-002,23.670,43.040,0.000,0.000,0.000,0.000,66.710,No
 Zone Internal Gains Nominal, OR3_FLR_2,55.74,3.0,18.587,5.380E-002,23.670,43.040,0.000,0.000,0.000,0.000,66.710,No
 Zone Internal Gains Nominal, OR4_FLR_2,222.97,12.0,18.587,5.380E-002,23.670,43.040,0.000,0.000,0.000,0.000,66.710,No
 Zone Internal Gains Nominal, OR_NURSESTN_LOBBY_FLR_2,1012.64,14.5,69.930,1.430E-002,12.700,11.190,0.000,0.000,0.000,0.000,23.890,No
 Zone Internal Gains Nominal, OFFICE1_FLR_5,69.70,5.2,13.280,7.530E-002,11.840,10.760,0.000,0.000,0.000,0.000,22.600,No
 Zone Internal Gains Nominal, OFFICE1_MULT4_FLR_1,13.94,1.0,13.280,7.530E-002,11.840,10.760,0.000,0.000,0.000,0.000,22.600,No
 Zone Internal Gains Nominal, OFFICE2_MULT5_FLR_5,69.68,5.2,13.280,7.530E-002,11.840,10.760,0.000,0.000,0.000,0.000,22.600,No
 Zone Internal Gains Nominal, OFFICE3_FLR_5,69.68,5.2,13.280,7.530E-002,11.840,10.760,0.000,0.000,0.000,0.000,22.600,No
 Zone Internal Gains Nominal, OFFICE4_MULT6_FLR_5,13.94,1.0,13.280,7.530E-002,11.840,10.760,0.000,0.000,0.000,0.000,22.600,No
 Zone Internal Gains Nominal, PATROOM1_MULT10_FLR_3,20.90,1.1,18.587,5.380E-002,7.530,21.520,0.000,0.000,0.000,0.000,29.050,No
 Zone Internal Gains Nominal, PATROOM1_MULT10_FLR_4,20.90,1.1,18.587,5.380E-002,7.530,21.520,0.000,0.000,0.000,0.000,29.050,No
 Zone Internal Gains Nominal, PATROOM2_FLR_3,34.84,1.9,18.587,5.380E-002,7.530,21.520,0.000,0.000,0.000,0.000,29.050,No
 Zone Internal Gains Nominal, PATROOM2_FLR_4,34.84,1.9,18.587,5.380E-002,7.530,21.520,0.000,0.000,0.000,0.000,29.050,No
 Zone Internal Gains Nominal, PATROOM3_MULT10_FLR_3,20.21,1.1,18.587,5.380E-002,7.530,21.520,0.000,0.000,0.000,0.000,29.050,No
 Zone Internal Gains Nominal, PATROOM3_MULT10_FLR_4,20.21,1.1,18.587,5.380E-002,7.530,21.520,0.000,0.000,0.000,0.000,29.050,No
 Zone Internal Gains Nominal, PATROOM4_FLR_3,34.84,1.9,18.587,5.380E-002,7.530,21.520,0.000,0.000,0.000,0.000,29.050,No
 Zone Internal Gains Nominal, PATROOM4_FLR_4,34.84,1.9,18.587,5.380E-002,7.530,21.520,0.000,0.000,0.000,0.000,29.050,No
 Zone Internal Gains Nominal, PATROOM5_MULT10_FLR_3,20.90,1.1,18.587,5.380E-002,7.530,21.520,0.000,0.000,0.000,0.000,29.050,No
 Zone Internal Gains Nominal, PATROOM5_MULT10_FLR_4,20.90,1.1,18.587,5.380E-002,7.530,21.520,0.000,0.000,0.000,0.000,29.050,No
 Zone Internal Gains Nominal, PATROOM6_FLR_3,27.87,1.5,18.587,5.380E-002,7.530,21.520,0.000,0.000,0.000,0.000,29.050,No
 Zone Internal Gains Nominal, PATROOM6_FLR_4,27.87,1.5,18.587,5.380E-002,7.530,21.520,0.000,0.000,0.000,0.000,29.050,No
 Zone Internal Gains Nominal, PATROOM7_MULT10_FLR_3,20.21,1.1,18.587,5.380E-002,7.530,21.520,0.000,0.000,0.000,0.000,29.050,No
 Zone Internal Gains Nominal, PATROOM7_MULT10_FLR_4,20.21,1.1,18.587,5.380E-002,7.530,21.520,0.000,0.000,0.000,0.000,29.050,No
 Zone Internal Gains Nominal, PATROOM8_FLR_3,27.87,1.5,18.587,5.380E-002,7.530,21.520,0.000,0.000,0.000,0.000,29.050,No
 Zone Internal Gains Nominal, PATROOM8_FLR_4,27.87,1.5,18.587,5.380E-002,7.530,21.520,0.000,0.000,0.000,0.000,29.050,No
 Zone Internal Gains Nominal, PHYSTHERAPY_FLR_3,487.74,26.2,18.587,5.380E-002,9.680,16.140,0.000,0.000,0.000,0.000,25.820,No
 Zone Internal Gains Nominal, RADIOLOGY_FLR_4,487.74,26.2,18.587,5.380E-002,4.300,53.080,0.000,0.000,0.000,0.000,57.380,No
! <People Internal Gains Nominal>,Name,Schedule Name,Zone Name,Zone Floor Area {m2},# Zone Occupants,Number of People {},People/Floor Area {person/m2},Floor Area per person {m2/person},Fraction Radiant,Fraction Convected,Sensible Fraction Calculation,Activity level,ASHRAE 55 Warnings,Carbon Dioxide Generation Rate,Nominal Minimum Number of People,Nominal Maximum Number of People,MRT Calculation Type,Work Efficiency, Clothing Insulation Calculation Method,Clothing Insulation Calculation Method Schedule,Clothing,Air Velocity,Fanger Calculation,Pierce Calculation,KSU Calculation
 People Internal Gains Nominal, BASEMENT PEOPLE,ADMIN_OCC_SCH,BASEMENT,3739.35,100.6,100.6,2.690E-002,37.175,0.300,0.700,AutoCalculate,ACTIVITY_SCH,No,3.8200E-008,0,91,Zone Averaged,WORK_EFF_SCH,Clothing Insulation Schedule,N/A,CLOTHING_SCH,AIR_VELO_SCH,Yes,No,No
 People Internal Gains Nominal, CORRIDOR_FLR_1 PEOPLE,ADMIN_OCC_SCH,CORRIDOR_FLR_1,569.03,6.1,6.1,1.080E-002,92.593,0.300,0.700,AutoCalculate,ACTIVITY_SCH,No,3.8200E-008,0,6,Zone Averaged,WORK_EFF_SCH,Clothing Insulation Schedule,N/A,CLOTHING_SCH,AIR_VELO_SCH,Yes,No,No
 People Internal Gains Nominal, CORRIDOR_FLR_2 PEOPLE,ADMIN_OCC_SCH,CORRIDOR_FLR_2,569.03,6.1,6.1,1.080E-002,92.593,0.300,0.700,AutoCalculate,ACTIVITY_SCH,No,3.8200E-008,0,6,Zone Averaged,WORK_EFF_SCH,Clothing Insulation Schedule,N/A,CLOTHING_SCH,AIR_VELO_SCH,Yes,No,No
 People Internal Gains Nominal, CORRIDOR_FLR_5 PEOPLE,ADMIN_OCC_SCH,CORRIDOR_FLR_5,501.68,5.4,5.4,1.080E-002,92.593,0.300,0.700,AutoCalculate,ACTIVITY_SCH,No,3.8200E-008,0,5,Zone Averaged,WORK_EFF_SCH,Clothing Insulation Schedule,N/A,CLOTHING_SCH,AIR_VELO_SCH,Yes,No,No
 People Internal Gains Nominal, CORRIDOR_NW_FLR_3 PEOPLE,ADMIN_OCC_SCH,CORRIDOR_NW_FLR_3,566.71,6.1,6.1,1.080E-002,92.593,0.300,0.700,AutoCalculate,ACTIVITY_SCH,No,3.8200E-008,0,6,Zone Averaged,WORK_EFF_SCH,Clothing Insulation Schedule,N/A,CLOTHING_SCH,AIR_VELO_SCH,Yes,No,No
 People Internal Gains Nominal, CORRIDOR_NW_FLR_4 PEOPLE,ADMIN_OCC_SCH,CORRIDOR_NW_FLR_4,566.71,6.1,6.1,1.080E-002,92.593,0.300,0.700,AutoCalculate,ACTIVITY_SCH,No,3.8200E-008,0,6,Zone Averaged,WORK_EFF_SCH,Clothing Insulation Schedule,N/A,CLOTHING_SCH,AIR_VELO_SCH,Yes,No,No
 People Internal Gains Nominal, CORRIDOR_SE_FLR_3 PEOPLE,ADMIN_OCC_SCH,CORRIDOR_SE_FLR_3,566.71,6.1,6.1,1.080E-002,92.593,0.300,0.700,AutoCalculate,ACTIVITY_SCH,No,3.8200E-008,0,6,Zone Averaged,WORK_EFF_SCH,Clothing Insulation Schedule,N/A,CLOTHING_SCH,AIR_VELO_SCH,Yes,No,No
 People Internal Gains Nominal, CORRIDOR_SE_FLR_4 PEOPLE,ADMIN_OCC_SCH,CORRIDOR_SE_FLR_4,566.71,6.1,6.1,1.080E-002,92.593,0.300,0.700,AutoCalculate,ACTIVITY_SCH,No,3.8200E-008,0,6,Zone Averaged,WORK_EFF_SCH,Clothing Insulation Schedule,N/A,CLOTHING_SCH,AIR_VELO_SCH,Yes,No,No
 People Internal Gains Nominal, DINING_FLR_5 PEOPLE,ADMIN_OCC_SCH,DINING_FLR_5,696.77,75.0,75.0,0.108,9.294,0.300,0.700,AutoCalculate,ACTIVITY_SCH,No,3.8200E-008,0,67,Zone Averaged,WORK_EFF_SCH,Clothing Insulation Schedule,N/A,CLOTHING_SCH,AIR_VELO_SCH,Yes,No,No
 People Internal Gains Nominal, ER_EXAM1_MULT4_FLR_1 PEOPLE,CRITICAL_OCC_SCH,ER_EXAM1_MULT4_FLR_1,27.87,6.0,6.0,0.215,4.651,0.300,0.700,AutoCalculate,ACTIVITY_SCH,No,3.8200E-008,2,5,Zone Averaged,WORK_EFF_SCH,Clothing Insulation Schedule,N/A,CLOTHING_SCH,AIR_VELO_SCH,Yes,No,No
 People Internal Gains Nominal, ER_EXAM3_MULT4_FLR_1 PEOPLE,CRITICAL_OCC_SCH,ER_EXAM3_MULT4_FLR_1,27.87,6.0,6.0,0.215,4.651,0.300,0.700,AutoCalculate,ACTIVITY_SCH,No,3.8200E-008,2,5,Zone Averaged,WORK_EFF_SCH,Clothing Insulation Schedule,N/A,CLOTHING_SCH,AIR_VELO_SCH,Yes,No,No
 People Internal Gains Nominal, ER_NURSESTN_LOBBY_FLR_1 PEOPLE,ADMIN_OCC_SCH,ER_NURSESTN_LOBBY_FLR_1,1235.61,17.7,17.7,1.430E-002,69.930,0.300,0.700,AutoCalculate,ACTIVITY_SCH,No,3.8200E-008,0,16,Zone Averaged,WORK_EFF_SCH,Clothing Insulation Schedule,N/A,CLOTHING_SCH,AIR_VELO_SCH,Yes,No,No
 People Internal Gains Nominal, ER_TRAUMA1_FLR_1 PEOPLE,CRITICAL_OCC_SCH,ER_TRAUMA1_FLR_1,27.87,6.0,6.0,0.215,4.651,0.300,0.700,AutoCalculate,ACTIVITY_SCH,No,3.8200E-008,2,5,Zone Averaged,WORK_EFF_SCH,Clothing Insulation Schedule,N/A,CLOTHING_SCH,AIR_VELO_SCH,Yes,No,No
 People Internal Gains Nominal, ER_TRAUMA2_FLR_1 PEOPLE,CRITICAL_OCC_SCH,ER_TRAUMA2_FLR_1,27.87,6.0,6.0,0.215,4.651,0.300,0.700,AutoCalculate,ACTIVITY_SCH,No,3.8200E-008,2,5,Zone Averaged,WORK_EFF_SCH,Clothing Insulation Schedule,N/A,CLOTHING_SCH,AIR_VELO_SCH,Yes,No,No
 People Internal Gains Nominal, ER_TRIAGE_MULT4_FLR_1 PEOPLE,CRITICAL_OCC_SCH,ER_TRIAGE_MULT4_FLR_1,27.87,6.0,6.0,0.215,4.651,0.300,0.700,AutoCalculate,ACTIVITY_SCH,No,3.8200E-008,2,5,Zone Averaged,WORK_EFF_SCH,Clothing Insulation Schedule,N/A,CLOTHING_SCH,AIR_VELO_SCH,Yes,No,No
 People Internal Gains Nominal, ICU_FLR_2 PEOPLE,CRITICAL_OCC_SCH,ICU_FLR_2,617.96,33.2,33.2,5.380E-002,18.587,0.300,0.700,AutoCalculate,ACTIVITY_SCH,No,3.8200E-008,13,30,Zone Averaged,WORK_EFF_SCH,Clothing Insulation Schedule,N/A,CLOTHING_SCH,AIR_VELO_SCH,Yes,No,No
 People Internal Gains Nominal, ICU_NURSESTN_LOBBY_FLR_2 PEOPLE,ADMIN_OCC_SCH,ICU_NURSESTN_LOBBY_FLR_2,668.77,9.6,9.6,1.430E-002,69.930,0.300,0.700,AutoCalculate,ACTIVITY_SCH,No,3.8200E-008,0,9,Zone Averaged,WORK_EFF_SCH,Clothing Insulation Schedule,N/A,CLOTHING_SCH,AIR_VELO_SCH,Yes,No,No
 People Internal Gains Nominal, IC_PATROOM1_MULT5_FLR_2 PEOPLE,CRITICAL_OCC_SCH,IC_PATROOM1_MULT5_FLR_2,20.90,1.1,1.1,5.380E-002,18.587,0.300,0.700,AutoCalculate,ACTIVITY_SCH,No,3.8200E-008,0,1,Zone Averaged,WORK_EFF_SCH,Clothing Insulation Schedule,N/A,CLOTHING_SCH,AIR_VELO_SCH,Yes,No,No
 People Internal Gains Nominal, IC_PATROOM2_FLR_2 PEOPLE,CRITICAL_OCC_SCH,IC_PATROOM2_FLR_2,27.87,1.5,1.5,5.380E-002,18.587,0.300,0.700,AutoCalculate,ACTIVITY_SCH,No,3.8200E-008,1,1,Zone Averaged,WORK_EFF_SCH,Clothing Insulation Schedule,N/A,CLOTHING_SCH,AIR_VELO_SCH,Yes,No,No
 People Internal Gains Nominal, IC_PATROOM3_MULT6_FLR_2 PEOPLE,CRITICAL_OCC_SCH,IC_PATROOM3_MULT6_FLR_2,20.90,1.1,1.1,5.380E-002,18.587,0.300,0.700,AutoCalculate,ACTIVITY_SCH,No,3.8200E-008,0,1,Zone Averaged,WORK_EFF_SCH,Clothing Insulation Schedule,N/A,CLOTHING_SCH,AIR_VELO_SCH,Yes,No,No
[...]
 Component Sizing Information, Controller:WaterCoil, CAV_1_HEATC_CONTROLLER, Maximum Actuated Flow [m3/s], 2.43996E-003
 Component Sizing Information, Controller:OutdoorAir, CAV_2_OA_CONTROLLER, Maximum Outdoor Air Flow Rate [m3/s], 12.07557
 Component Sizing Information, Controller:OutdoorAir, CAV_2_OA_CONTROLLER, Minimum Outdoor Air Flow Rate [m3/s], 2.54439
 Component Sizing Information, Humidifier:Steam:Electric, CAV_2 HUMIDIFIER, Design Size Nominal Capacity Volume [m3/s], 8.55677E-005
 Component Sizing Information, Humidifier:Steam:Electric, CAV_2 HUMIDIFIER, User-Specified Nominal Capacity Volume [m3/s], 3.72000E-005
 Component Sizing Information, Humidifier:Steam:Electric, CAV_2 HUMIDIFIER, Design Size Rated Power [W], 96450.69782
 Component Sizing Information, Humidifier:Steam:Electric, CAV_2 HUMIDIFIER, User-Specified Rated Power [W], 100000.00000
 Component Sizing Information, Coil:Cooling:Water:DetailedGeometry, CAV_2_COOLC, Design Size Design Coil Load [W], 258447.38131
 Component Sizing Information, Coil:Cooling:Water:DetailedGeometry, CAV_2_COOLC, Design Size Maximum Water Flow Rate [m3/s], 9.23114E-003
 Component Sizing Information, Coil:Cooling:Water:DetailedGeometry, CAV_2_COOLC, Design Size Number of Tubes per Row, 127.00000
 Component Sizing Information, Coil:Cooling:Water:DetailedGeometry, CAV_2_COOLC, Design Size Fin Diameter [m], 4.75683
 Component Sizing Information, Coil:Cooling:Water:DetailedGeometry, CAV_2_COOLC, Design Size Minimum Airflow Area [m2], 6.24777
 Component Sizing Information, Coil:Cooling:Water:DetailedGeometry, CAV_2_COOLC, Design Size Fin Surface Area [m2], 1114.65933
 Component Sizing Information, Coil:Cooling:Water:DetailedGeometry, CAV_2_COOLC, Design Size Total Tube Inside Area [m2], 48.44796
 Component Sizing Information, Coil:Cooling:Water:DetailedGeometry, CAV_2_COOLC, Design Size Tube Outside Surface Area [m2], 49.67478
 Component Sizing Information, Coil:Cooling:Water:DetailedGeometry, CAV_2_COOLC, Design Size Coil Depth [m], 0.15600
Water Cooling Coil Capacity Information,Coil:Cooling:Water:DetailedGeometry,CAV_2_COOLC,308479.50,213927.60,94551.90,0.69
 Component Sizing Information, Coil:Heating:Water, CAV_2_HEATC, Design Size Rated Capacity [W], 78535.68499
 Component Sizing Information, Coil:Heating:Water, CAV_2_HEATC, Design Size Maximum Water Flow Rate [m3/s], 1.71952E-003
 Component Sizing Information, Coil:Heating:Water, CAV_2_HEATC, Design Size U-Factor Times Area Value [W/K], 1267.54636
Water Heating Coil Capacity Information,Coil:Heating:Water,CAV_2_HEATC,71933.02
 Component Sizing Information, Fan:VariableVolume, CAV_2_FAN, Design Size Maximum Flow Rate [m3/s], 12.07557
 Component Sizing Information, Controller:WaterCoil, CAV_2_COOLC_CONTROLLER, Maximum Actuated Flow [m3/s], 9.23114E-003
 Component Sizing Information, Controller:WaterCoil, CAV_2_COOLC_CONTROLLER, Controller Convergence Tolerance, 5.15852E-005
 Component Sizing Information, Controller:WaterCoil, CAV_2_HEATC_CONTROLLER, Maximum Actuated Flow [m3/s], 1.71952E-003
 Component Sizing Information, Controller:OutdoorAir, VAV_1_OA_CONTROLLER, Maximum Outdoor Air Flow Rate [m3/s], 24.32458
 Component Sizing Information, Controller:OutdoorAir, VAV_1_OA_CONTROLLER, Minimum Outdoor Air Flow Rate [m3/s], 5.18069
 Component Sizing Information, Coil:Cooling:Water:DetailedGeometry, VAV_1_COOLC, Design Size Design Coil Load [W], 699495.55335
 Component Sizing Information, Coil:Cooling:Water:DetailedGeometry, VAV_1_COOLC, Design Size Maximum Water Flow Rate [m3/s], 2.49844E-002
 Component Sizing Information, Coil:Cooling:Water:DetailedGeometry, VAV_1_COOLC, Design Size Number of Tubes per Row, 344.00000
 Component Sizing Information, Coil:Cooling:Water:DetailedGeometry, VAV_1_COOLC, Design Size Fin Diameter [m], 9.58197
 Component Sizing Information, Coil:Cooling:Water:DetailedGeometry, VAV_1_COOLC, Design Size Minimum Airflow Area [m2], 12.58528
 Component Sizing Information, Coil:Cooling:Water:DetailedGeometry, VAV_1_COOLC, Design Size Fin Surface Area [m2], 2245.32812
 Component Sizing Information, Coil:Cooling:Water:DetailedGeometry, VAV_1_COOLC, Design Size Total Tube Inside Area [m2], 131.22912
 Component Sizing Information, Coil:Cooling:Water:DetailedGeometry, VAV_1_COOLC, Design Size Tube Outside Surface Area [m2], 134.55216
 Component Sizing Information, Coil:Cooling:Water:DetailedGeometry, VAV_1_COOLC, Design Size Coil Depth [m], 0.15600
Water Cooling Coil Capacity Information,Coil:Cooling:Water:DetailedGeometry,VAV_1_COOLC,729941.48,478550.57,251390.91,0.66
 Component Sizing Information, Coil:Heating:Water, VAV_1_HEATC, Design Size Rated Capacity [W], 229842.33325
 Component Sizing Information, Coil:Heating:Water, VAV_1_HEATC, Design Size Maximum Water Flow Rate [m3/s], 5.03234E-003
 Component Sizing Information, Coil:Heating:Water, VAV_1_HEATC, Design Size U-Factor Times Area Value [W/K], 3204.30398
Water Heating Coil Capacity Information,Coil:Heating:Water,VAV_1_HEATC,162765.86
 Component Sizing Information, Fan:VariableVolume, VAV_1_FAN, Design Size Maximum Flow Rate [m3/s], 24.32458
 Component Sizing Information, Controller:WaterCoil, VAV_1_COOLC_CONTROLLER, Maximum Actuated Flow [m3/s], 2.49844E-002
 Component Sizing Information, Controller:WaterCoil, VAV_1_COOLC_CONTROLLER, Controller Convergence Tolerance, 1.90595E-005
 Component Sizing Information, Controller:WaterCoil, VAV_1_HEATC_CONTROLLER, Maximum Actuated Flow [m3/s], 5.03234E-003
 Component Sizing Information, Controller:OutdoorAir, VAV_2_OA_CONTROLLER, Maximum Outdoor Air Flow Rate [m3/s], 41.24605
 Component Sizing Information, Controller:OutdoorAir, VAV_2_OA_CONTROLLER, Minimum Outdoor Air Flow Rate [m3/s], 9.48834
 Component Sizing Information, Coil:Cooling:Water:DetailedGeometry, VAV_2_COOLC, Design Size Design Coil Load [W], 1228283.14110
 Component Sizing Information, Coil:Cooling:Water:DetailedGeometry, VAV_2_COOLC, Design Size Maximum Water Flow Rate [m3/s], 4.38714E-002
 Component Sizing Information, Coil:Cooling:Water:DetailedGeometry, VAV_2_COOLC, Design Size Number of Tubes per Row, 604.00000
 Component Sizing Information, Coil:Cooling:Water:DetailedGeometry, VAV_2_COOLC, Design Size Fin Diameter [m], 16.24770
 Component Sizing Information, Coil:Cooling:Water:DetailedGeometry, VAV_2_COOLC, Design Size Minimum Airflow Area [m2], 21.34026
 Component Sizing Information, Coil:Cooling:Water:DetailedGeometry, VAV_2_COOLC, Design Size Fin Surface Area [m2], 3807.29654
 Component Sizing Information, Coil:Cooling:Water:DetailedGeometry, VAV_2_COOLC, Design Size Total Tube Inside Area [m2], 230.41392
 Component Sizing Information, Coil:Cooling:Water:DetailedGeometry, VAV_2_COOLC, Design Size Tube Outside Surface Area [m2], 236.24856
 Component Sizing Information, Coil:Cooling:Water:DetailedGeometry, VAV_2_COOLC, Design Size Coil Depth [m], 0.15600
Water Cooling Coil Capacity Information,Coil:Cooling:Water:DetailedGeometry,VAV_2_COOLC,1258648.42,820713.88,437934.54,0.65
 Component Sizing Information, Coil:Heating:Water, VAV_2_HEATC, Design Size Rated Capacity [W], 422284.47824
 Component Sizing Information, Coil:Heating:Water, VAV_2_HEATC, Design Size Maximum Water Flow Rate [m3/s], 9.24581E-003
 Component Sizing Information, Coil:Heating:Water, VAV_2_HEATC, Design Size U-Factor Times Area Value [W/K], 5799.49206
Water Heating Coil Capacity Information,Coil:Heating:Water,VAV_2_HEATC,292117.62
 Component Sizing Information, Fan:VariableVolume, VAV_2_FAN, Design Size Maximum Flow Rate [m3/s], 41.24605
 Component Sizing Information, Controller:WaterCoil, VAV_2_COOLC_CONTROLLER, Maximum Actuated Flow [m3/s], 4.38714E-002
 Component Sizing Information, Controller:WaterCoil, VAV_2_COOLC_CONTROLLER, Controller Convergence Tolerance, 1.08542E-005
 Component Sizing Information, Controller:WaterCoil, VAV_2_HEATC_CONTROLLER, Maximum Actuated Flow [m3/s], 9.24581E-003
Water Heater Information,WaterHeater:Mixed,SWHSYS1 WATER HEATER,3.0000,845000.0,0.232,0.6813
 Component Sizing Information, PlantLoop, COOLSYS1, Maximum Loop Flow Rate [m3/s], 9.56870E-002
 Component Sizing Information, PlantLoop, COOLSYS1, Plant Loop Volume [m3], 11.48244
 Component Sizing Information, Pump:VariableSpeed, COOLSYS1 PUMP, Design Flow Rate [m3/s], 9.56870E-002
 Component Sizing Information, Pump:VariableSpeed, COOLSYS1 PUMP, Design Power Consumption [W], 24446.80834
 Component Sizing Information, Chiller:Electric:ReformulatedEIR, COOLSYS1 CHILLER, Design Size Reference Chilled Water Flow Rate [m3/s], 9.56870E-002
 Component Sizing Information, Chiller:Electric:ReformulatedEIR, COOLSYS1 CHILLER, Design Size Reference Capacity [W], 2698301.00414
 Component Sizing Information, Chiller:Electric:ReformulatedEIR, COOLSYS1 CHILLER, Design Size Reference Condenser Water Flow Rate [m3/s], 0.13301
! <Chiller Standard Rating Information>, Component Type, Component Name, IPLV in SI Units {W/W}, IPLV in IP Units {Btu/W-h}
 Chiller Standard Rating Information, Chiller:Electric:ReformulatedEIR, COOLSYS1 CHILLER, 5.86, 19.99
 Component Sizing Information, PlantLoop, HEATSYS1, Maximum Loop Flow Rate [m3/s], 3.63969E-002
 Component Sizing Information, PlantLoop, HEATSYS1, Plant Loop Volume [m3], 4.36762
 Component Sizing Information, Pump:VariableSpeed, HEATSYS1 PUMP, Design Flow Rate [m3/s], 3.63969E-002
 Component Sizing Information, Pump:VariableSpeed, HEATSYS1 PUMP, Design Power Consumption [W], 9298.93397
 Component Sizing Information, Boiler:HotWater, HEATSYS1 BOILER, Design Size Nominal Capacity [W], 1662357.25435
 Component Sizing Information, Boiler:HotWater, HEATSYS1 BOILER, Design Size Design Water Flow Rate [m3/s], 3.63969E-002
 Component Sizing Information, PlantLoop, SWHSYS1, Maximum Loop Flow Rate [m3/s], 2.88593E-004
 Component Sizing Information, PlantLoop, SWHSYS1, Plant Loop Volume [m3], 3.46312E-002
 Component Sizing Information, Pump:VariableSpeed, SWHSYS1 PUMP, Design Flow Rate [m3/s], 2.88593E-004
 Component Sizing Information, Pump:VariableSpeed, SWHSYS1 PUMP, Design Power Consumption [W], 73.73191
 Component Sizing Information, WaterHeater:Mixed, SWHSYS1 WATER HEATER, Use Side Design Flow Rate [m3/s], 2.88593E-004
 Component Sizing Information, CondenserLoop, TOWERWATERSYS, Maximum Loop Flow Rate [m3/s], 0.13301
 Component Sizing Information, CondenserLoop, TOWERWATERSYS, Condenser Loop Volume [m3], 15.96073
 Component Sizing Information, Pump:ConstantSpeed, TOWERWATERSYS PUMP, Design Flow Rate [m3/s], 0.13301
 Component Sizing Information, Pump:ConstantSpeed, TOWERWATERSYS PUMP, Design Power Consumption [W], 35153.12590
 Component Sizing Information, CoolingTower:SingleSpeed, TOWERWATERSYS COOLTOWER, Design Water Flow Rate [m3/s], 0.13301
 Component Sizing Information, CoolingTower:SingleSpeed, TOWERWATERSYS COOLTOWER, Fan Power at Design Air Flow Rate [W], 32686.50006
 Component Sizing Information, CoolingTower:SingleSpeed, TOWERWATERSYS COOLTOWER, Design Air Flow Rate [m3/s], 88.09635
 Component Sizing Information, CoolingTower:SingleSpeed, TOWERWATERSYS COOLTOWER, U-Factor Times Area Value at Design Air Flow Rate [W/C], 188091.98893
 Component Sizing Information, CoolingTower:SingleSpeed, TOWERWATERSYS COOLTOWER, Free Convection Regime Air Flow Rate [m3/s], 8.80964
 Component Sizing Information, CoolingTower:SingleSpeed, TOWERWATERSYS COOLTOWER, Free Convection U-Factor Times Area Value [W/K], 18809.19889
! <Environment>,Environment Name,Environment Type, Start Date, End Date, Start DayOfWeek, Duration {#days}, Source:Start DayOfWeek,  Use Daylight Saving, Use Holidays, Apply Weekend Holiday Rule,  Use Rain Values, Use Snow Values
! <Environment:Special Days>, Special Day Name, Special Day Type, Source, Start Date, Duration {#days}
! <Environment:Daylight Saving>, Daylight Saving Indicator, Source, Start Date, End Date
! <Environment:WarmupDays>, NumberofWarmupDays
Environment,RUNPERIOD 1,WeatherFileRunPeriod,01/01/2017,12/31/2017,Sunday,365,Use RunPeriod Specified Day,No,No,No,Yes,Yes
Environment:Daylight Saving,Yes,InputFile,03/12,11/05
Environment:Special Days,NEW YEARS DAY,Holiday,InputFile,01/01,  1
Environment:Special Days,VETERANS DAY,Holiday,InputFile,11/11,  1
Environment:Special Days,CHRISTMAS,Holiday,InputFile,12/25,  1
Environment:Special Days,INDEPENDENCE DAY,Holiday,InputFile,07/04,  1
Environment:Special Days,MLK DAY,Holiday,InputFile,01/16,  1
Environment:Special Days,PRESIDENTS DAY,Holiday,InputFile,02/20,  1
Environment:Special Days,MEMORIAL DAY,Holiday,InputFile,05/29,  1
Environment:Special Days,LABOR DAY,Holiday,InputFile,09/04,  1
Environment:Special Days,COLUMBUS DAY,Holiday,InputFile,10/09,  1
Environment:Special Days,THANKSGIVING,Holiday,InputFile,11/23,  1
Environment:WarmupDays,  8
! <Warmup Convergence Information>,Zone Name,Environment Type/Name,Average Warmup Temperature Difference {deltaC},Std Dev Warmup Temperature Difference {deltaC},Max Temperature Pass/Fail Convergence,Min Temperature Pass/Fail Convergence,Average Warmup Load Difference {W},Std Dev Warmup Load Difference {W},Heating Load Pass/Fail Convergence,Cooling Load Pass/Fail Convergence
 Warmup Convergence Information,BASEMENT,RunPeriod: RUNPERIOD 1,6.0249490736E-003,2.5617121778E-002,Pass,Pass,7.7262027273E-004,3.1346884833E-003,Pass,Pass
 Warmup Convergence Information,CORRIDOR_FLR_1,RunPeriod: RUNPERIOD 1,8.6499760746E-004,5.6000647366E-004,Pass,Pass,8.2975588633E-003,1.3355528302E-002,Pass,Pass
 Warmup Convergence Information,CORRIDOR_FLR_2,RunPeriod: RUNPERIOD 1,1.0642318407E-003,7.8390376523E-004,Pass,Pass,9.0807166184E-003,1.4898659332E-002,Pass,Pass
 Warmup Convergence Information,CORRIDOR_FLR_5,RunPeriod: RUNPERIOD 1,1.3218584994E-003,9.3423962811E-004,Pass,Pass,8.5433326372E-003,5.4593475373E-003,Pass,Pass
 Warmup Convergence Information,CORRIDOR_NW_FLR_3,RunPeriod: RUNPERIOD 1,2.1216160444E-003,2.6140934394E-003,Pass,Pass,2.1574387807E-003,2.4309936817E-003,Pass,Pass
 Warmup Convergence Information,CORRIDOR_NW_FLR_4,RunPeriod: RUNPERIOD 1,2.2636099104E-003,2.6851432518E-003,Pass,Pass,2.0607390157E-003,2.2395177154E-003,Pass,Pass
 Warmup Convergence Information,CORRIDOR_SE_FLR_3,RunPeriod: RUNPERIOD 1,2.4063408909E-003,2.3874661563E-003,Pass,Pass,2.0998442938E-003,1.9559652413E-003,Pass,Pass
 Warmup Convergence Information,CORRIDOR_SE_FLR_4,RunPeriod: RUNPERIOD 1,2.5544853556E-003,2.4601282897E-003,Pass,Pass,2.0279441856E-003,1.8322657048E-003,Pass,Pass
 Warmup Convergence Information,DINING_FLR_5,RunPeriod: RUNPERIOD 1,1.8299138395E-003,1.3879847607E-003,Pass,Pass,3.1540622064E-002,4.6720273710E-002,Pass,Pass
 Warmup Convergence Information,ER_EXAM1_MULT4_FLR_1,RunPeriod: RUNPERIOD 1,2.1154657792E-002,4.5247905234E-002,Pass,Pass,1.0304316735E-002,2.2646188378E-002,Pass,Pass
 Warmup Convergence Information,ER_EXAM3_MULT4_FLR_1,RunPeriod: RUNPERIOD 1,2.1052294044E-002,4.6609554613E-002,Pass,Pass,9.9981808638E-003,2.2677428391E-002,Pass,Pass
 Warmup Convergence Information,ER_NURSESTN_LOBBY_FLR_1,RunPeriod: RUNPERIOD 1,1.1727807751E-003,7.0972452743E-004,Pass,Pass,1.5795667259E-002,5.8726700141E-002,Pass,Pass
 Warmup Convergence Information,ER_TRAUMA1_FLR_1,RunPeriod: RUNPERIOD 1,1.2143103374E-002,1.8711679139E-002,Pass,Pass,1.6682825252E-002,4.6277929857E-002,Pass,Pass
 Warmup Convergence Information,ER_TRAUMA2_FLR_1,RunPeriod: RUNPERIOD 1,1.6485671626E-002,4.1951995508E-002,Pass,Pass,1.7635188520E-002,4.8036174050E-002,Pass,Pass
 Warmup Convergence Information,ER_TRIAGE_MULT4_FLR_1,RunPeriod: RUNPERIOD 1,2.5079711177E-002,5.9200561079E-002,Pass,Pass,1.1125886050E-002,2.6665126481E-002,Pass,Pass
 Warmup Convergence Information,ICU_FLR_2,RunPeriod: RUNPERIOD 1,2.7096655293E-002,6.9055468398E-002,Pass,Pass,8.6231910320E-003,2.3610108223E-002,Pass,Pass
 Warmup Convergence Information,ICU_NURSESTN_LOBBY_FLR_2,RunPeriod: RUNPERIOD 1,1.4276434963E-002,3.8315756890E-002,Pass,Pass,1.8343856689E-003,4.8010074376E-003,Pass,Pass
 Warmup Convergence Information,IC_PATROOM1_MULT5_FLR_2,RunPeriod: RUNPERIOD 1,4.5509641800E-003,3.8446665989E-003,Pass,Pass,0.3603164030,2.1940944053,Pass,Pass
 Warmup Convergence Information,IC_PATROOM2_FLR_2,RunPeriod: RUNPERIOD 1,5.7220588339E-003,4.0465736611E-003,Pass,Pass,8.4377091205E-002,0.1390015903,Pass,Pass
 Warmup Convergence Information,IC_PATROOM3_MULT6_FLR_2,RunPeriod: RUNPERIOD 1,6.6884060086E-003,4.3894363209E-003,Pass,Pass,8.9897115226E-002,0.2076723649,Pass,Pass
 Warmup Convergence Information,KITCHEN_FLR_5,RunPeriod: RUNPERIOD 1,1.1832879331E-002,3.1356986529E-002,Pass,Pass,6.5399023347E-002,9.9542862466E-002,Pass,Pass
 Warmup Convergence Information,LAB_FLR_3,RunPeriod: RUNPERIOD 1,6.3099491636E-003,1.8185354768E-002,Pass,Pass,8.1367647438E-003,4.0707231330E-002,Pass,Pass
 Warmup Convergence Information,LAB_FLR_4,RunPeriod: RUNPERIOD 1,5.8536835013E-003,1.5839079626E-002,Pass,Pass,8.2325783190E-003,4.1600309027E-002,Pass,Pass
 Warmup Convergence Information,LOBBY_RECORDS_FLR_1,RunPeriod: RUNPERIOD 1,1.1867507177E-003,8.7740947592E-004,Pass,Pass,1.0098851369E-002,1.5052725245E-002,Pass,Pass
 Warmup Convergence Information,NURSESTN_LOBBY_FLR_3,RunPeriod: RUNPERIOD 1,7.8895620750E-004,5.1284000866E-004,Pass,Pass,9.1085198282E-003,4.2490800923E-002,Pass,Pass
 Warmup Convergence Information,NURSESTN_LOBBY_FLR_4,RunPeriod: RUNPERIOD 1,7.6198589429E-004,4.7130474497E-004,Pass,Pass,8.6822603355E-003,3.9169533292E-002,Pass,Pass
 Warmup Convergence Information,NURSESTN_LOBBY_FLR_5,RunPeriod: RUNPERIOD 1,1.2270764913E-003,9.8699324876E-004,Pass,Pass,2.8986824459E-002,5.1748982091E-002,Pass,Pass
 Warmup Convergence Information,OR1_FLR_2,RunPeriod: RUNPERIOD 1,1.9983794484E-002,5.4776707264E-002,Pass,Pass,1.2172928767E-002,3.3562403348E-002,Pass,Pass
 Warmup Convergence Information,OR2_MULT5_FLR_2,RunPeriod: RUNPERIOD 1,2.0718742659E-002,5.3790444809E-002,Pass,Pass,9.3225531710E-003,2.4622928318E-002,Pass,Pass
 Warmup Convergence Information,OR3_FLR_2,RunPeriod: RUNPERIOD 1,2.0238993465E-002,5.4367078345E-002,Pass,Pass,1.0227462935E-002,2.7802746179E-002,Pass,Pass
 Warmup Convergence Information,OR4_FLR_2,RunPeriod: RUNPERIOD 1,2.0510695428E-002,5.6413325175E-002,Pass,Pass,8.0713250017E-003,2.2601911964E-002,Pass,Pass
 Warmup Convergence Information,OR_NURSESTN_LOBBY_FLR_2,RunPeriod: RUNPERIOD 1,9.5634413510E-004,6.7846454636E-004,Pass,Pass,4.7243401964E-002,8.8156127452E-002,Pass,Pass
 Warmup Convergence Information,OFFICE1_FLR_5,RunPeriod: RUNPERIOD 1,2.6986162524E-003,1.9277041683E-003,Pass,Pass,3.3636081432E-002,4.2023585636E-002,Pass,Pass
 Warmup Convergence Information,OFFICE1_MULT4_FLR_1,RunPeriod: RUNPERIOD 1,8.1226634890E-003,2.3319399938E-002,Pass,Pass,0.7303047691,4.2523694987,Pass,Pass
 Warmup Convergence Information,OFFICE2_MULT5_FLR_5,RunPeriod: RUNPERIOD 1,2.5356027644E-003,1.8918493103E-003,Pass,Pass,1.4818136434E-002,1.9112479506E-002,Pass,Pass
 Warmup Convergence Information,OFFICE3_FLR_5,RunPeriod: RUNPERIOD 1,2.8216949641E-003,2.0033779583E-003,Pass,Pass,1.1024385094E-002,1.2609498936E-002,Pass,Pass
 Warmup Convergence Information,OFFICE4_MULT6_FLR_5,RunPeriod: RUNPERIOD 1,1.6175541465E-003,1.4794206885E-003,Pass,Pass,9.7890558398E-003,1.2451154532E-002,Pass,Pass
 Warmup Convergence Information,PATROOM1_MULT10_FLR_3,RunPeriod: RUNPERIOD 1,5.0618709328E-003,3.6398559253E-003,Pass,Pass,0.1613035457,0.3901167221,Pass,Pass
 Warmup Convergence Information,PATROOM1_MULT10_FLR_4,RunPeriod: RUNPERIOD 1,4.6584987536E-003,3.4929413688E-003,Pass,Pass,0.1901566807,0.4833114226,Pass,Pass
 Warmup Convergence Information,PATROOM2_FLR_3,RunPeriod: RUNPERIOD 1,4.5510724054E-003,3.5146690031E-003,Pass,Pass,0.4294662285,3.1588447060,Pass,Pass
 Warmup Convergence Information,PATROOM2_FLR_4,RunPeriod: RUNPERIOD 1,5.1367023752E-003,4.0205330333E-003,Pass,Pass,0.1453042386,0.4484284554,Pass,Pass
 Warmup Convergence Information,PATROOM3_MULT10_FLR_3,RunPeriod: RUNPERIOD 1,5.5138428370E-003,3.7351443973E-003,Pass,Pa