Program Version,EnergyPlus, Version 9.2.0-921312fa1d, YMD=2020.12.22 18:19
! <Version>, Version ID
 Version, 9.2
! <Timesteps per Hour>, #TimeSteps, Minutes per TimeStep {minutes}
 Timesteps per Hour,  4, 15
! <System Convergence Limits>, Minimum System TimeStep {minutes}, Max HVAC Iterations, Minimum Plant Iterations, Maximum Plant Iterations
 System Convergence Limits, 2, 25, 2, 8
! <Simulation Control>, Do Zone Sizing, Do System Sizing, Do Plant Sizing, Do Design Days, Do Weather Simulation, Do HVAC Sizing Simulation
 Simulation Control, Yes, Yes, Yes, No, Yes, No
! <Output Reporting Tolerances>, Tolerance for Time Heating Setpoint Not Met, Tolerance for Zone Cooling Setpoint Not Met Time
 Output Reporting Tolerances, 0.556, 0.556, 
! <Site:GroundTemperature:BuildingSurface>,Jan{C},Feb{C},Mar{C},Apr{C},May{C},Jun{C},Jul{C},Aug{C},Sep{C},Oct{C},Nov{C},Dec{C}
 Site:GroundTemperature:BuildingSurface,  19.53,  19.50,  19.54,  19.60,  20.00,  21.64,  22.23,  22.38,  21.45,  20.12,  19.80,  19.63
! <Site:GroundTemperature:FCfactorMethod>,Jan{C},Feb{C},Mar{C},Apr{C},May{C},Jun{C},Jul{C},Aug{C},Sep{C},Oct{C},Nov{C},Dec{C}
 Site:GroundTemperature:FCfactorMethod,  -1.89,  -3.06,  -0.99,   2.23,  10.68,  17.20,  21.60,  22.94,  20.66,  15.60,   8.83,   2.56
! <Site:GroundTemperature:Shallow>,Jan{C},Feb{C},Mar{C},Apr{C},May{C},Jun{C},Jul{C},Aug{C},Sep{C},Oct{C},Nov{C},Dec{C}
 Site:GroundTemperature:Shallow,  13.00,  13.00,  13.00,  13.00,  13.00,  13.00,  13.00,  13.00,  13.00,  13.00,  13.00,  13.00
! <Site:GroundTemperature:Deep>,Jan{C},Feb{C},Mar{C},Apr{C},May{C},Jun{C},Jul{C},Aug{C},Sep{C},Oct{C},Nov{C},Dec{C}
 Site:GroundTemperature:Deep,  16.00,  16.00,  16.00,  16.00,  16.00,  16.00,  16.00,  16.00,  16.00,  16.00,  16.00,  16.00
! <Site:GroundReflectance>,Jan{dimensionless},Feb{dimensionless},Mar{dimensionless},Apr{dimensionless},May{dimensionless},Jun{dimensionless},Jul{dimensionless},Aug{dimensionless},Sep{dimensionless},Oct{dimensionless},Nov{dimensionless},Dec{dimensionless}
 Site:GroundReflectance,  0.20,  0.20,  0.20,  0.20,  0.20,  0.20,  0.20,  0.20,  0.20,  0.20,  0.20,  0.20
! <Site:GroundReflectance:SnowModifier>, Normal, Daylighting {dimensionless}
 Site:GroundReflectance:SnowModifier,   1.000,   1.000
! <Site:GroundReflectance:Snow>,Jan{dimensionless},Feb{dimensionless},Mar{dimensionless},Apr{dimensionless},May{dimensionless},Jun{dimensionless},Jul{dimensionless},Aug{dimensionless},Sep{dimensionless},Oct{dimensionless},Nov{dimensionless},Dec{dimensionless}
 Site:GroundReflectance:Snow,  0.20,  0.20,  0.20,  0.20,  0.20,  0.20,  0.20,  0.20,  0.20,  0.20,  0.20,  0.20
! <Site:GroundReflectance:Snow:Daylighting>,Jan{dimensionless},Feb{dimensionless},Mar{dimensionless},Apr{dimensionless},May{dimensionless},Jun{dimensionless},Jul{dimensionless},Aug{dimensionless},Sep{dimensionless},Oct{dimensionless},Nov{dimensionless},Dec{dimensionless}
 Site:GroundReflectance:Snow:Daylighting,  0.20,  0.20,  0.20,  0.20,  0.20,  0.20,  0.20,  0.20,  0.20,  0.20,  0.20,  0.20
! <Environment:Weather Station>,Wind Sensor Height Above Ground {m},Wind Speed Profile Exponent {},Wind Speed Profile Boundary Layer Thickness {m},Air Temperature Sensor Height Above Ground {m},Wind Speed Modifier Coefficient-Internal,Temperature Modifier Coefficient-Internal
Environment:Weather Station,10.000,0.140,270.000,1.500,1.586,9.750E-003
! <Site:Location>, Location Name, Latitude {N+/S- Deg}, Longitude {E+/W- Deg},  Time Zone Number {GMT+/-}, Elevation {m},  Standard Pressure at Elevation {Pa}, Standard RhoAir at Elevation
Site:Location,Chicago Ohare Intl Ap IL USA TMY3 WMO#=725300,41.98,-87.92,-6.00,201.00,98934,1.1759
! <Site Water Mains Temperature Information>,Calculation Method{},Water Mains Temperature Schedule Name{},Annual Average Outdoor Air Temperature{C},Maximum Difference In Monthly Average Outdoor Air Temperatures{deltaC},Fixed Default Water Mains Temperature{C}
Site Water Mains Temperature Information,Correlation,NA,9.69,28.10,NA
! Schedule Details Report=Hourly =====================
! <ScheduleType>,Name,Limited? {Yes/No},Minimum,Maximum,Continuous? {Yes/No - Discrete}
! <DaySchedule>,Name,ScheduleType,Interpolated {Yes/No},Time (HH:MM) =>,01:00,02:00,03:00,04:00,05:00,06:00,07:00,08:00,09:00,10:00,11:00,12:00,13:00,14:00,15:00,16:00,17:00,18:00,19:00,20:00,21:00,22:00,23:00,24:00
! <WeekSchedule>,Name,Sunday,Monday,Tuesday,Wednesday,Thursday,Friday,Saturday,Holiday,SummerDesignDay,WinterDesignDay,CustomDay1,CustomDay2
! <Schedule>,Name,ScheduleType,{Until Date,WeekSchedule}** Repeated until Dec 31
ScheduleTypeLimits,ANY NUMBER,No,N/A,N/A,N/A
ScheduleTypeLimits,FRACTION,Average,0.00,1.00,Yes
ScheduleTypeLimits,TEMPERATURE,Average,-60.00,200.00,Yes
ScheduleTypeLimits,ON/OFF,Average,0,1,No
ScheduleTypeLimits,CONTROL TYPE,Average,0,4,No
ScheduleTypeLimits,HUMIDITY,Average,10.00,90.00,Yes
ScheduleTypeLimits,NUMBER,No,N/A,N/A,N/A
DaySchedule,ALWAYS_ON_dy_1,ON/OFF,No,Values:,1.00,1.00,1.00,1.00,1.00,1.00,1.00,1.00,1.00,1.00,1.00,1.00,1.00,1.00,1.00,1.00,1.00,1.00,1.00,1.00,1.00,1.00,1.00,1.00
DaySchedule,DELI_EXHAUST_SCH_dy_1,ON/OFF,No,Values:,1.00,1.00,1.00,1.00,1.00,1.00,1.00,1.00,1.00,1.00,1.00,1.00,1.00,1.00,1.00,1.00,1.00,1.00,1.00,1.00,1.00,1.00,1.00,1.00
DaySchedule,DELI_EXHAUST_SCH_dy_2,ON/OFF,No,Values:,0.00,0.00,0.00,0.00,0.00,0.00,1.00,1.00,1.00,1.00,1.00,1.00,1.00,1.00,1.00,1.00,1.00,1.00,1.00,1.00,1.00,1.00,0.00,0.00
DaySchedule,BLDG_EQUIP_SCH_dy_1,FRACTION,No,Values:,0.20,0.20,0.20,0.20,0.20,0.20,0.40,0.40,0.70,0.90,0.90,0.90,0.90,0.90,0.90,0.90,0.90,0.90,0.80,0.80,0.70,0.40,0.20,0.20
DaySchedule,BLDG_EQUIP_SCH_dy_2,FRACTION,No,Values:,0.15,0.15,0.15,0.15,0.15,0.15,0.30,0.30,0.50,0.80,0.90,0.90,0.90,0.90,0.90,0.90,0.90,0.90,0.70,0.50,0.50,0.30,0.15,0.15
DaySchedule,BLDG_EQUIP_SCH_dy_3,FRACTION,No,Values:,1.00,1.00,1.00,1.00,1.00,1.00,1.00,1.00,1.00,1.00,1.00,1.00,1.00,1.00,1.00,1.00,1.00,1.00,1.00,1.00,1.00,1.00,1.00,1.00
DaySchedule,BLDG_EQUIP_SCH_dy_4,FRACTION,No,Values:,0.00,0.00,0.00,0.00,0.00,0.00,0.00,0.00,0.00,0.00,0.00,0.00,0.00,0.00,0.00,0.00,0.00,0.00,0.00,0.00,0.00,0.00,0.00,0.00
DaySchedule,BLDG_EQUIP_SCH_dy_5,FRACTION,No,Values:,0.15,0.15,0.15,0.15,0.15,0.15,0.30,0.30,0.30,0.30,0.60,0.60,0.80,0.80,0.80,0.80,0.80,0.60,0.40,0.40,0.40,0.40,0.15,0.15
DaySchedule,BLDG_LIGHT_SCH_dy_1,FRACTION,No,Values:,5.00E-002,5.00E-002,5.00E-002,5.00E-002,5.00E-002,5.00E-002,0.20,0.20,0.50,0.90,0.90,0.90,0.90,0.90,0.90,0.90,0.90,0.90,0.60,0.60,0.50,0.20,5.00E-002,5.00E-002
DaySchedule,BLDG_LIGHT_SCH_dy_2,FRACTION,No,Values:,5.00E-002,5.00E-002,5.00E-002,5.00E-002,5.00E-002,5.00E-002,0.10,0.10,0.30,0.60,0.90,0.90,0.90,0.90,0.90,0.90,0.90,0.90,0.50,0.30,0.30,0.10,5.00E-002,5.00E-002
DaySchedule,BLDG_LIGHT_SCH_dy_3,FRACTION,No,Values:,1.00,1.00,1.00,1.00,1.00,1.00,1.00,1.00,1.00,1.00,1.00,1.00,1.00,1.00,1.00,1.00,1.00,1.00,1.00,1.00,1.00,1.00,1.00,1.00
DaySchedule,BLDG_LIGHT_SCH_dy_4,FRACTION,No,Values:,0.00,0.00,0.00,0.00,0.00,0.00,0.00,0.00,0.00,0.00,0.00,0.00,0.00,0.00,0.00,0.00,0.00,0.00,0.00,0.00,0.00,0.00,0.00,0.00
DaySchedule,BLDG_LIGHT_SCH_dy_5,FRACTION,No,Values:,5.00E-002,5.00E-002,5.00E-002,5.00E-002,5.00E-002,5.00E-002,0.10,0.10,0.10,0.10,0.40,0.40,0.60,0.60,0.60,0.60,0.60,0.40,0.20,0.20,0.20,0.20,5.00E-002,5.00E-002
DaySchedule,BLDG_OCC_SCH_dy_1,FRACTION,No,Values:,0.00,0.00,0.00,0.00,0.00,0.00,0.10,0.10,0.20,0.50,0.50,0.70,0.70,0.70,0.70,0.80,0.70,0.50,0.50,0.30,0.30,0.30,0.00,0.00
DaySchedule,BLDG_OCC_SCH_dy_2,FRACTION,No,Values:,1.00,1.00,1.00,1.00,1.00,1.00,1.00,1.00,1.00,1.00,1.00,1.00,1.00,1.00,1.00,1.00,1.00,1.00,1.00,1.00,1.00,1.00,1.00,1.00
DaySchedule,BLDG_OCC_SCH_dy_3,FRACTION,No,Values:,0.00,0.00,0.00,0.00,0.00,0.00,0.10,0.10,0.20,0.50,0.60,0.80,0.80,0.80,0.80,0.80,0.80,0.60,0.20,0.20,0.20,0.10,0.00,0.00
DaySchedule,BLDG_OCC_SCH_dy_4,FRACTION,No,Values:,0.00,0.00,0.00,0.00,0.00,0.00,0.00,0.00,0.00,0.00,0.00,0.00,0.00,0.00,0.00,0.00,0.00,0.00,0.00,0.00,0.00,0.00,0.00,0.00
DaySchedule,BLDG_OCC_SCH_dy_5,FRACTION,No,Values:,0.00,0.00,0.00,0.00,0.00,0.00,0.10,0.10,0.10,0.10,0.20,0.20,0.40,0.40,0.40,0.40,0.40,0.20,0.10,0.10,0.10,0.10,0.00,0.00
DaySchedule,INFIL_HALF_ON_SCH_dy_1,FRACTION,No,Values:,1.00,1.00,1.00,1.00,1.00,1.00,0.50,0.50,0.50,0.50,0.50,0.50,0.50,0.50,0.50,0.50,0.50,0.50,0.50,0.50,0.50,0.50,1.00,1.00
DaySchedule,INFIL_HALF_ON_SCH_dy_2,FRACTION,No,Values:,1.00,1.00,1.00,1.00,1.00,1.00,0.50,0.50,0.50,0.50,0.50,0.50,0.50,0.50,0.50,0.50,0.50,0.50,0.50,0.50,0.50,0.50,1.00,1.00
DaySchedule,INFIL_HALF_ON_SCH_dy_3,FRACTION,No,Values:,1.00,1.00,1.00,1.00,1.00,1.00,1.00,1.00,1.00,1.00,1.00,1.00,1.00,1.00,1.00,1.00,1.00,1.00,1.00,1.00,1.00,1.00,1.00,1.00
DaySchedule,INFIL_HALF_ON_SCH_dy_4,FRACTION,No,Values:,1.00,1.00,1.00,1.00,1.00,1.00,1.00,1.00,0.50,0.50,0.50,0.50,0.50,0.50,0.50,0.50,0.50,1.00,1.00,1.00,1.00,1.00,1.00,1.00
DaySchedule,CLOTHING_SCH_dy_1,ANY NUMBER,No,Values:,1.00,1.00,1.00,1.00,1.00,1.00,1.00,1.00,1.00,1.00,1.00,1.00,1.00,1.00,1.00,1.00,1.00,1.00,1.00,1.00,1.00,1.00,1.00,1.00
DaySchedule,CLOTHING_SCH_dy_2,ANY NUMBER,No,Values:,0.50,0.50,0.50,0.50,0.50,0.50,0.50,0.50,0.50,0.50,0.50,0.50,0.50,0.50,0.50,0.50,0.50,0.50,0.50,0.50,0.50,0.50,0.50,0.50
DaySchedule,CLOTHING_SCH_dy_3,ANY NUMBER,No,Values:,1.00,1.00,1.00,1.00,1.00,1.00,1.00,1.00,1.00,1.00,1.00,1.00,1.00,1.00,1.00,1.00,1.00,1.00,1.00,1.00,1.00,1.00,1.00,1.00
DaySchedule,WORK_EFF_SCH_dy_1,FRACTION,No,Values:,0.00,0.00,0.00,0.00,0.00,0.00,0.00,0.00,0.00,0.00,0.00,0.00,0.00,0.00,0.00,0.00,0.00,0.00,0.00,0.00,0.00,0.00,0.00,0.00
DaySchedule,ACTIVITY_SCH_dy_1,ANY NUMBER,No,Values:,120.00,120.00,120.00,120.00,120.00,120.00,120.00,120.00,120.00,120.00,120.00,120.00,120.00,120.00,120.00,120.00,120.00,120.00,120.00,120.00,120.00,120.00,120.00,120.00
DaySchedule,AIR_VELO_SCH_dy_1,ANY NUMBER,No,Values:,0.20,0.20,0.20,0.20,0.20,0.20,0.20,0.20,0.20,0.20,0.20,0.20,0.20,0.20,0.20,0.20,0.20,0.20,0.20,0.20,0.20,0.20,0.20,0.20
DaySchedule,CLGSETP_SCH_dy_1,TEMPERATURE,No,Values:,30.00,30.00,30.00,30.00,30.00,30.00,30.00,30.00,30.00,30.00,30.00,30.00,30.00,30.00,30.00,30.00,30.00,30.00,30.00,30.00,30.00,30.00,30.00,30.00
DaySchedule,CLGSETP_SCH_dy_2,TEMPERATURE,No,Values:,30.00,30.00,30.00,30.00,30.00,30.00,24.00,24.00,24.00,24.00,24.00,24.00,24.00,24.00,24.00,24.00,24.00,24.00,24.00,24.00,24.00,24.00,30.00,30.00
DaySchedule,HTGSETP_SCH_dy_1,TEMPERATURE,No,Values:,15.60,15.60,15.60,15.60,15.60,15.60,15.60,15.60,15.60,15.60,15.60,15.60,15.60,15.60,15.60,15.60,15.60,15.60,15.60,15.60,15.60,15.60,15.60,15.60
DaySchedule,HTGSETP_SCH_dy_2,TEMPERATURE,No,Values:,15.60,15.60,15.60,15.60,15.60,15.60,21.00,21.00,21.00,21.00,21.00,21.00,21.00,21.00,21.00,21.00,21.00,21.00,21.00,21.00,21.00,21.00,15.60,15.60
DaySchedule,HVACOPERATIONSCHD_dy_1,ON/OFF,No,Values:,0.00,0.00,0.00,0.00,0.00,0.00,1.00,1.00,1.00,1.00,1.00,1.00,1.00,1.00,1.00,1.00,1.00,1.00,1.00,1.00,1.00,1.00,0.00,0.00
DaySchedule,MINOA_SCHED_dy_1,FRACTION,No,Values:,0.00,0.00,0.00,0.00,0.00,0.00,1.00,1.00,1.00,1.00,1.00,1.00,1.00,1.00,1.00,1.00,1.00,1.00,1.00,1.00,1.00,1.00,0.00,0.00
DaySchedule,DUAL ZONE CONTROL TYPE SCHED_dy_1,CONTROL TYPE,No,Values:,4.00,4.00,4.00,4.00,4.00,4.00,4.00,4.00,4.00,4.00,4.00,4.00,4.00,4.00,4.00,4.00,4.00,4.00,4.00,4.00,4.00,4.00,4.00,4.00
DaySchedule,BAKERY_CASE:1_WALKINFREEZER_CASECREDITREDUXSCHED_dy_1,FRACTION,No,Values:,0.20,0.20,0.20,0.20,0.20,0.20,0.20,0.40,0.40,0.40,0.40,0.40,0.40,0.40,0.40,0.40,0.40,0.40,0.40,0.40,0.40,0.20,0.20,0.20
DaySchedule,BAKERY_CASE:1_WALKINFREEZER_CASEDEFROST2ADAYSCHED_dy_1,ON/OFF,Average,Values:,0.00,0.00,0.00,0.00,0.00,0.00,0.00,0.00,0.00,0.00,0.00,0.00,0.00,0.00,0.00,0.00,0.00,0.00,0.00,0.00,0.00,0.00,0.00,0.00
DaySchedule,BAKERY_CASE:1_WALKINFREEZER_CASEDRIPDOWN2ADAYSCHED_dy_1,ON/OFF,Average,Values:,0.00,0.00,0.00,0.00,0.00,0.00,0.00,0.00,0.00,0.00,0.00,0.00,0.00,0.00,0.00,0.00,0.00,0.00,0.00,0.00,0.00,0.00,0.00,0.00
DaySchedule,BAKERY_CASE:1_WALKINFREEZER_WALKINSTOCKINGSCHED_dy_1,ANY NUMBER,No,Values:,0.00,0.00,0.00,0.00,725.00,417.00,290.00,0.00,0.00,0.00,0.00,0.00,0.00,0.00,0.00,0.00,0.00,0.00,0.00,0.00,0.00,0.00,0.00,0.00
DaySchedule,BAKERY_CASE:1_WALKINFREEZER_WALKINSTOCKINGSCHED_dy_2,ANY NUMBER,No,Values:,0.00,0.00,0.00,0.00,125.00,117.00,90.00,0.00,0.00,0.00,0.00,0.00,0.00,0.00,0.00,0.00,0.00,0.00,0.00,125.00,117.00,90.00,0.00,0.00
DaySchedule,DELI_CASE:1_ MULTIDECKDIARYANDDELICASE_CASECREDITREDUXSCHED_dy_1,FRACTION,No,Values:,0.20,0.20,0.20,0.20,0.20,0.20,0.20,0.60,0.60,0.60,0.60,0.60,0.60,0.60,0.60,0.60,0.60,0.60,0.60,0.60,0.60,0.20,0.20,0.20
DaySchedule,DELI_CASE:1_ MULTIDECKDIARYANDDELICASE_CASEDEFROST2ADAYSCHED_dy_1,ON/OFF,Average,Values:,0.00,0.00,0.00,0.00,0.00,0.00,0.00,0.00,0.00,0.00,0.00,0.00,0.00,0.00,0.00,0.00,0.00,0.00,0.00,0.00,0.00,0.00,0.00,0.00
DaySchedule,DELI_CASE:1_ MULTIDECKDIARYANDDELICASE_CASEDRIPDOWN2ADAYSCHED_dy_1,ON/OFF,Average,Values:,0.00,0.00,0.00,0.00,0.00,0.00,0.00,0.00,0.00,0.00,0.00,0.00,0.00,0.00,0.00,0.00,0.00,0.00,0.00,0.00,0.00,0.00,0.00,0.00
DaySchedule,DELI_CASE:1_ MULTIDECKDIARYANDDELICASE_CASESTOCKINGSCHED_dy_1,ANY NUMBER,No,Values:,0.00,0.00,0.00,0.00,0.00,0.00,0.00,0.00,0.00,0.00,0.00,0.00,0.00,50.00,35.00,0.00,0.00,0.00,0.00,0.00,0.00,0.00,0.00,0.00
DaySchedule,DELI_CASE:2_WALKINFREEZER_CASECREDITREDUXSCHED_dy_1,FRACTION,No,Values:,0.20,0.20,0.20,0.20,0.20,0.20,0.20,0.40,0.40,0.40,0.40,0.40,0.40,0.40,0.40,0.40,0.40,0.40,0.40,0.40,0.40,0.20,0.20,0.20
DaySchedule,DELI_CASE:2_WALKINFREEZER_CASEDEFROST2ADAYSCHED_dy_1,ON/OFF,Average,Values:,0.00,0.00,0.00,0.00,0.00,0.00,0.00,0.00,0.00,0.00,0.00,0.00,0.00,0.00,0.00,0.00,0.00,0.00,0.00,0.00,0.00,0.00,0.00,0.00
DaySchedule,DELI_CASE:2_WALKINFREEZER_CASEDRIPDOWN2ADAYSCHED_dy_1,ON/OFF,Average,Values:,0.00,0.00,0.00,0.00,0.00,0.00,0.00,0.00,0.00,0.00,0.00,0.00,0.00,0.00,0.00,0.00,0.00,0.00,0.00,0.00,0.00,0.00,0.00,0.00
DaySchedule,DELI_CASE:2_WALKINFREEZER_WALKINSTOCKINGSCHED_dy_1,ANY NUMBER,No,Values:,0.00,0.00,0.00,0.00,725.00,417.00,290.00,0.00,0.00,0.00,0.00,0.00,0.00,0.00,0.00,0.00,0.00,0.00,0.00,0.00,0.00,0.00,0.00,0.00
DaySchedule,DELI_CASE:2_WALKINFREEZER_WALKINSTOCKINGSCHED_dy_2,ANY NUMBER,No,Values:,0.00,0.00,0.00,0.00,125.00,117.00,90.00,0.00,0.00,0.00,0.00,0.00,0.00,0.00,0.00,0.00,0.00,0.00,0.00,125.00,117.00,90.00,0.00,0.00
DaySchedule,PRODUCE_CASE:1_ MULTIDECKDIARYANDDELICASE_CASECREDITREDUXSCHED_dy_1,FRACTION,No,Values:,0.20,0.20,0.20,0.20,0.20,0.20,0.20,0.60,0.60,0.60,0.60,0.60,0.60,0.60,0.60,0.60,0.60,0.60,0.60,0.60,0.60,0.20,0.20,0.20
DaySchedule,PRODUCE_CASE:1_ MULTIDECKDIARYANDDELICASE_CASEDEFROST2ADAYSCHED_dy_1,ON/OFF,Average,Values:,0.00,0.00,0.00,0.00,0.00,0.00,0.00,0.00,0.00,0.00,0.00,0.00,0.00,0.00,0.00,0.00,0.00,0.00,0.00,0.00,0.00,0.00,0.00,0.00
DaySchedule,PRODUCE_CASE:1_ MULTIDECKDIARYANDDELICASE_CASEDRIPDOWN2ADAYSCHED_dy_1,ON/OFF,Average,Values:,0.00,0.00,0.00,0.00,0.00,0.00,0.00,0.00,0.00,0.00,0.00,0.00,0.00,0.00,0.00,0.00,0.00,0.00,0.00,0.00,0.00,0.00,0.00,0.00
DaySchedule,PRODUCE_CASE:1_ MULTIDECKDIARYANDDELICASE_CASESTOCKINGSCHED_dy_1,ANY NUMBER,No,Values:,0.00,0.00,0.00,0.00,0.00,0.00,0.00,0.00,0.00,0.00,0.00,0.00,0.00,50.00,35.00,0.00,0.00,0.00,0.00,0.00,0.00,0.00,0.00,0.00
DaySchedule,SALES_CASE:1_MEATDISPLAYCASE_CASEDEFROST2ADAYSCHED_dy_1,ON/OFF,Average,Values:,0.00,0.00,0.00,0.00,0.00,0.00,0.00,0.00,0.00,0.00,0.00,0.00,0.00,0.00,0.00,0.00,0.00,0.00,0.00,0.00,0.00,0.00,0.00,0.00
DaySchedule,SALES_CASE:1_MEATDISPLAYCASE_CASEDRIPDOWN2ADAYSCHED_dy_1,ON/OFF,Average,Values:,0.00,0.00,0.00,0.00,0.00,0.00,0.00,0.00,0.00,0.00,0.00,0.00,0.00,0.00,0.00,0.00,0.00,0.00,0.00,0.00,0.00,0.00,0.00,0.00
DaySchedule,SALES_CASE:1_MEATDISPLAYCASE_CASESTOCKINGSCHED_dy_1,ANY NUMBER,No,Values:,0.00,0.00,0.00,0.00,0.00,0.00,0.00,0.00,0.00,0.00,0.00,0.00,0.00,50.00,35.00,0.00,0.00,0.00,0.00,0.00,0.00,0.00,0.00,0.00
DaySchedule,SALES_CASE:2_ MULTIDECKDIARYANDDELICASE_CASECREDITREDUXSCHED_dy_1,FRACTION,No,Values:,0.20,0.20,0.20,0.20,0.20,0.20,0.20,0.60,0.60,0.60,0.60,0.60,0.60,0.60,0.60,0.60,0.60,0.60,0.60,0.60,0.60,0.20,0.20,0.20
DaySchedule,SALES_CASE:2_ MULTIDECKDIARYANDDELICASE_CASEDEFROST2ADAYSCHED_dy_1,ON/OFF,Average,Values:,0.00,0.00,0.00,0.00,0.00,0.00,0.00,0.00,0.00,0.00,0.00,0.00,0.00,0.00,0.00,0.00,0.00,0.00,0.00,0.00,0.00,0.00,0.00,0.00
DaySchedule,SALES_CASE:2_ MULTIDECKDIARYANDDELICASE_CASEDRIPDOWN2ADAYSCHED_dy_1,ON/OFF,Average,Values:,0.00,0.00,0.00,0.00,0.00,0.00,0.00,0.00,0.00,0.00,0.00,0.00,0.00,0.00,0.00,0.00,0.00,0.00,0.00,0.00,0.00,0.00,0.00,0.00
DaySchedule,SALES_CASE:2_ MULTIDECKDIARYANDDELICASE_CASESTOCKINGSCHED_dy_1,ANY NUMBER,No,Values:,0.00,0.00,0.00,0.00,0.00,0.00,0.00,0.00,0.00,0.00,0.00,0.00,0.00,50.00,35.00,0.00,0.00,0.00,0.00,0.00,0.00,0.00,0.00,0.00
DaySchedule,SALES_CASE:3_GLASSDOORFROZENFOOD_CASECREDITREDUXSCHED_dy_1,FRACTION,No,Values:,0.20,0.20,0.20,0.20,0.20,0.20,0.20,0.60,0.60,0.60,0.60,0.60,0.60,0.60,0.60,0.60,0.60,0.60,0.60,0.60,0.60,0.20,0.20,0.20
DaySchedule,SALES_CASE:3_GLASSDOORFROZENFOOD_CASEDEFROST2ADAYSCHED_dy_1,ON/OFF,Average,Values:,0.00,0.00,0.00,0.00,0.00,0.00,0.00,0.00,0.00,0.00,0.00,0.00,0.00,0.00,0.00,0.00,0.00,0.00,0.00,0.00,0.00,0.00,0.00,0.00
DaySchedule,SALES_CASE:3_GLASSDOORFROZENFOOD_CASEDRIPDOWN2ADAYSCHED_dy_1,ON/OFF,Average,Values:,0.00,0.00,0.00,0.00,0.00,0.00,0.00,0.00,0.00,0.00,0.00,0.00,0.00,0.00,0.00,0.00,0.00,0.00,0.00,0.00,0.00,0.00,0.00,0.00
DaySchedule,SALES_CASE:3_GLASSDOORFROZENFOOD_CASESTOCKINGSCHED_dy_1,ANY NUMBER,No,Values:,0.00,0.00,0.00,0.00,0.00,0.00,0.00,0.00,0.00,0.00,0.00,0.00,0.00,50.00,35.00,0.00,0.00,0.00,0.00,0.00,0.00,0.00,0.00,0.00
DaySchedule,SALES_CASE:4_OPENWELLICECREAMDISPLAYCASE_CASECREDITREDUXSCHED_dy_1,FRACTION,No,Values:,0.20,0.20,0.20,0.20,0.20,0.20,0.20,0.60,0.60,0.60,0.60,0.60,0.60,0.60,0.60,0.60,0.60,0.60,0.60,0.60,0.60,0.20,0.20,0.20
DaySchedule,SALES_CASE:4_OPENWELLICECREAMDISPLAYCASE_CASEDEFROST2ADAYSCHED_dy_1,ON/OFF,Average,Values:,0.00,0.00,0.00,0.00,0.00,0.00,0.00,0.00,0.00,0.00,0.00,0.00,0.00,0.00,0.00,0.00,0.00,0.00,0.00,0.00,0.00,0.00,0.00,0.00
DaySchedule,SALES_CASE:4_OPENWELLICECREAMDISPLAYCASE_CASEDRIPDOWN2ADAYSCHED_dy_1,ON/OFF,Average,Values:,0.00,0.00,0.00,0.00,0.00,0.00,0.00,0.00,0.00,0.00,0.00,0.00,0.00,0.00,0.00,0.00,0.00,0.00,0.00,0.00,0.00,0.00,0.00,0.00
DaySchedule,SALES_CASE:4_OPENWELLICECREAMDISPLAYCASE_CASESTOCKINGSCHED_dy_1,ANY NUMBER,No,Values:,0.00,0.00,0.00,0.00,0.00,0.00,0.00,0.00,0.00,0.00,0.00,0.00,0.00,50.00,35.00,0.00,0.00,0.00,0.00,0.00,0.00,0.00,0.00,0.00
DaySchedule,SALES_CASE:5_WALKINFREEZER_CASECREDITREDUXSCHED_dy_1,FRACTION,No,Values:,0.20,0.20,0.20,0.20,0.20,0.20,0.20,0.40,0.40,0.40,0.40,0.40,0.40,0.40,0.40,0.40,0.40,0.40,0.40,0.40,0.40,0.20,0.20,0.20
DaySchedule,SALES_CASE:5_WALKINFREEZER_CASEDEFROST2ADAYSCHED_dy_1,ON/OFF,Average,Values:,0.00,0.00,0.00,0.00,0.00,0.00,0.00,0.00,0.00,0.00,0.00,0.00,0.00,0.00,0.00,0.00,0.00,0.00,0.00,0.00,0.00,0.00,0.00,0.00
DaySchedule,SALES_CASE:5_WALKINFREEZER_CASEDRIPDOWN2ADAYSCHED_dy_1,ON/OFF,Average,Values:,0.00,0.00,0.00,0.00,0.00,0.00,0.00,0.00,0.00,0.00,0.00,0.00,0.00,0.00,0.00,0.00,0.00,0.00,0.00,0.00,0.00,0.00,0.00,0.00
DaySchedule,SALES_CASE:5_WALKINFREEZER_WALKINSTOCKINGSCHED_dy_1,ANY NUMBER,No,Values:,0.00,0.00,0.00,0.00,725.00,417.00,290.00,0.00,0.00,0.00,0.00,0.00,0.00,0.00,0.00,0.00,0.00,0.00,0.00,0.00,0.00,0.00,0.00,0.00
DaySchedule,SALES_CASE:5_WALKINFREEZER_WALKINSTOCKINGSCHED_dy_2,ANY NUMBER,No,Values:,0.00,0.00,0.00,0.00,125.00,117.00,90.00,0.00,0.00,0.00,0.00,0.00,0.00,0.00,0.00,0.00,0.00,0.00,0.00,125.00,117.00,90.00,0.00,0.00
DaySchedule,SALES_CASE:6_WALKINFREEZER_CASECREDITREDUXSCHED_dy_1,FRACTION,No,Values:,0.20,0.20,0.20,0.20,0.20,0.20,0.20,0.40,0.40,0.40,0.40,0.40,0.40,0.40,0.40,0.40,0.40,0.40,0.40,0.40,0.40,0.20,0.20,0.20
DaySchedule,SALES_CASE:6_WALKINFREEZER_CASEDEFROST2ADAYSCHED_dy_1,ON/OFF,Average,Values:,0.00,0.00,0.00,0.00,0.00,0.00,0.00,0.00,0.00,0.00,0.00,0.00,0.00,0.00,0.00,0.00,0.00,0.00,0.00,0.00,0.00,0.00,0.00,0.00
DaySchedule,SALES_CASE:6_WALKINFREEZER_CASEDRIPDOWN2ADAYSCHED_dy_1,ON/OFF,Average,Values:,0.00,0.00,0.00,0.00,0.00,0.00,0.00,0.00,0.00,0.00,0.00,0.00,0.00,0.00,0.00,0.00,0.00,0.00,0.00,0.00,0.00,0.00,0.00,0.00
DaySchedule,SALES_CASE:6_WALKINFREEZER_WALKINSTOCKINGSCHED_dy_1,ANY NUMBER,No,Values:,0.00,0.00,0.00,0.00,725.00,417.00,290.00,0.00,0.00,0.00,0.00,0.00,0.00,0.00,0.00,0.00,0.00,0.00,0.00,0.00,0.00,0.00,0.00,0.00
DaySchedule,SALES_CASE:6_WALKINFREEZER_WALKINSTOCKINGSCHED_dy_2,ANY NUMBER,No,Values:,0.00,0.00,0.00,0.00,125.00,117.00,90.00,0.00,0.00,0.00,0.00,0.00,0.00,0.00,0.00,0.00,0.00,0.00,0.00,125.00,117.00,90.00,0.00,0.00
DaySchedule,SALES_CASE:7_WALKINFREEZER_CASECREDITREDUXSCHED_dy_1,FRACTION,No,Values:,0.20,0.20,0.20,0.20,0.20,0.20,0.20,0.40,0.40,0.40,0.40,0.40,0.40,0.40,0.40,0.40,0.40,0.40,0.40,0.40,0.40,0.20,0.20,0.20
DaySchedule,SALES_CASE:7_WALKINFREEZER_CASEDEFROST2ADAYSCHED_dy_1,ON/OFF,Average,Values:,0.00,0.00,0.00,0.00,0.00,0.00,0.00,0.00,0.00,0.00,0.00,0.00,0.00,0.00,0.00,0.00,0.00,0.00,0.00,0.00,0.00,0.00,0.00,0.00
DaySchedule,SALES_CASE:7_WALKINFREEZER_CASEDRIPDOWN2ADAYSCHED_dy_1,ON/OFF,Average,Values:,0.00,0.00,0.00,0.00,0.00,0.00,0.00,0.00,0.00,0.00,0.00,0.00,0.00,0.00,0.00,0.00,0.00,0.00,0.00,0.00,0.00,0.00,0.00,0.00
DaySchedule,SALES_CASE:7_WALKINFREEZER_WALKINSTOCKINGSCHED_dy_1,ANY NUMBER,No,Values:,0.00,0.00,0.00,0.00,725.00,417.00,290.00,0.00,0.00,0.00,0.00,0.00,0.00,0.00,0.00,0.00,0.00,0.00,0.00,0.00,0.00,0.00,0.00,0.00
DaySchedule,SALES_CASE:7_WALKINFREEZER_WALKINSTOCKINGSCHED_dy_2,ANY NUMBER,No,Values:,0.00,0.00,0.00,0.00,125.00,117.00,90.00,0.00,0.00,0.00,0.00,0.00,0.00,0.00,0.00,0.00,0.00,0.00,0.00,125.00,117.00,90.00,0.00,0.00
DaySchedule,BLDG_SWH_SCH_dy_1,FRACTION,No,Values:,4.00E-002,5.00E-002,5.00E-002,4.00E-002,4.00E-002,4.00E-002,4.00E-002,0.15,0.23,0.32,0.41,0.57,0.62,0.61,0.50,0.45,0.46,0.47,0.42,0.34,0.33,0.23,0.13,8.00E-002
DaySchedule,BLDG_SWH_SCH_dy_2,FRACTION,No,Values:,0.11,0.10,8.00E-002,6.00E-002,6.00E-002,6.00E-002,7.00E-002,0.20,0.24,0.27,0.42,0.54,0.59,0.60,0.49,0.48,0.47,0.46,0.44,0.36,0.29,0.22,0.16,0.13
DaySchedule,BLDG_SWH_SCH_dy_3,FRACTION,No,Values:,7.00E-002,7.00E-002,7.00E-002,6.00E-002,6.00E-002,6.00E-002,7.00E-002,0.10,0.12,0.14,0.29,0.31,0.36,0.36,0.34,0.35,0.37,0.34,0.25,0.27,0.21,0.16,0.10,6.00E-002
DaySchedule,WATER EQUIPMENT LATENT FRACT SCHED_dy_1,FRACTION,No,Values:,5.00E-002,5.00E-002,5.00E-002,5.00E-002,5.00E-002,5.00E-002,5.00E-002,5.00E-002,5.00E-002,5.00E-002,5.00E-002,5.00E-002,5.00E-002,5.00E-002,5.00E-002,5.00E-002,5.00E-002,5.00E-002,5.00E-002,5.00E-002,5.00E-002,5.00E-002,5.00E-002,5.00E-002
DaySchedule,WATER EQUIPMENT SENSIBLE FRACT SCHED_dy_1,FRACTION,No,Values:,0.20,0.20,0.20,0.20,0.20,0.20,0.20,0.20,0.20,0.20,0.20,0.20,0.20,0.20,0.20,0.20,0.20,0.20,0.20,0.20,0.20,0.20,0.20,0.20
DaySchedule,WATER EQUIPMENT HOT SUPPLY TEMP SCHED_dy_1,TEMPERATURE,No,Values:,49.00,49.00,49.00,49.00,49.00,49.00,49.00,49.00,49.00,49.00,49.00,49.00,49.00,49.00,49.00,49.00,49.00,49.00,49.00,49.00,49.00,49.00,49.00,49.00
DaySchedule,WATER EQUIPMENT TEMP SCHED_dy_1,TEMPERATURE,No,Values:,49.00,49.00,49.00,49.00,49.00,49.00,49.00,49.00,49.00,49.00,49.00,49.00,49.00,49.00,49.00,49.00,49.00,49.00,49.00,49.00,49.00,49.00,49.00,49.00
DaySchedule,PLANTONSCHED_dy_1,ON/OFF,No,Values:,1.00,1.00,1.00,1.00,1.00,1.00,1.00,1.00,1.00,1.00,1.00,1.00,1.00,1.00,1.00,1.00,1.00,1.00,1.00,1.00,1.00,1.00,1.00,1.00
DaySchedule,SWHSYS1 WATER HEATER AMBIENT TEMPERATURE SCHEDULE NAME_dy_1,TEMPERATURE,No,Values:,22.00,22.00,22.00,22.00,22.00,22.00,22.00,22.00,22.00,22.00,22.00,22.00,22.00,22.00,22.00,22.00,22.00,22.00,22.00,22.00,22.00,22.00,22.00,22.00
DaySchedule,SWHSYS1 WATER HEATER SETPOINT TEMPERATURE SCHEDULE NAME_dy_1,TEMPERATURE,No,Values:,60.00,60.00,60.00,60.00,60.00,60.00,60.00,60.00,60.00,60.00,60.00,60.00,60.00,60.00,60.00,60.00,60.00,60.00,60.00,60.00,60.00,60.00,60.00,60.00
DaySchedule,SWHSYS1-LOOP-TEMP-SCHEDULE_dy_1,TEMPERATURE,No,Values:,60.00,60.00,60.00,60.00,60.00,60.00,60.00,60.00,60.00,60.00,60.00,60.00,60.00,60.00,60.00,60.00,60.00,60.00,60.00,60.00,60.00,60.00,60.00,60.00
Schedule:Week:Daily,ALWAYS_ON_wk_1,ALWAYS_ON_dy_1,ALWAYS_ON_dy_1,ALWAYS_ON_dy_1,ALWAYS_ON_dy_1,ALWAYS_ON_dy_1,ALWAYS_ON_dy_1,ALWAYS_ON_dy_1,ALWAYS_ON_dy_1,ALWAYS_ON_dy_1,ALWAYS_ON_dy_1,ALWAYS_ON_dy_1,ALWAYS_ON_dy_1
Schedule:Week:Daily,DELI_EXHAUST_SCH_wk_1,DELI_EXHAUST_SCH_dy_2,DELI_EXHAUST_SCH_dy_2,DELI_EXHAUST_SCH_dy_2,DELI_EXHAUST_SCH_dy_2,DELI_EXHAUST_SCH_dy_2,DELI_EXHAUST_SCH_dy_2,DELI_EXHAUST_SCH_dy_2,DELI_EXHAUST_SCH_dy_2,DELI_EXHAUST_SCH_dy_1,DELI_EXHAUST_SCH_dy_1,DELI_EXHAUST_SCH_dy_2,DELI_EXHAUST_SCH_dy_2
Schedule:Week:Daily,BLDG_EQUIP_SCH_wk_1,BLDG_EQUIP_SCH_dy_5,BLDG_EQUIP_SCH_dy_1,BLDG_EQUIP_SCH_dy_1,BLDG_EQUIP_SCH_dy_1,BLDG_EQUIP_SCH_dy_1,BLDG_EQUIP_SCH_dy_1,BLDG_EQUIP_SCH_dy_2,BLDG_EQUIP_SCH_dy_5,BLDG_EQUIP_SCH_dy_3,BLDG_EQUIP_SCH_dy_4,BLDG_EQUIP_SCH_dy_5,BLDG_EQUIP_SCH_dy_5
Schedule:Week:Daily,BLDG_LIGHT_SCH_wk_1,BLDG_LIGHT_SCH_dy_5,BLDG_LIGHT_SCH_dy_1,BLDG_LIGHT_SCH_dy_1,BLDG_LIGHT_SCH_dy_1,BLDG_LIGHT_SCH_dy_1,BLDG_LIGHT_SCH_dy_1,BLDG_LIGHT_SCH_dy_2,BLDG_LIGHT_SCH_dy_5,BLDG_LIGHT_SCH_dy_3,BLDG_LIGHT_SCH_dy_4,BLDG_LIGHT_SCH_dy_5,BLDG_LIGHT_SCH_dy_5
Schedule:Week:Daily,BLDG_OCC_SCH_wk_1,BLDG_OCC_SCH_dy_5,BLDG_OCC_SCH_dy_1,BLDG_OCC_SCH_dy_1,BLDG_OCC_SCH_dy_1,BLDG_OCC_SCH_dy_1,BLDG_OCC_SCH_dy_1,BLDG_OCC_SCH_dy_3,BLDG_OCC_SCH_dy_5,BLDG_OCC_SCH_dy_2,BLDG_OCC_SCH_dy_4,BLDG_OCC_SCH_dy_5,BLDG_OCC_SCH_dy_5
Schedule:Week:Daily,INFIL_HALF_ON_SCH_wk_1,INFIL_HALF_ON_SCH_dy_4,INFIL_HALF_ON_SCH_dy_1,INFIL_HALF_ON_SCH_dy_1,INFIL_HALF_ON_SCH_dy_1,INFIL_HALF_ON_SCH_dy_1,INFIL_HALF_ON_SCH_dy_1,INFIL_HALF_ON_SCH_dy_2,INFIL_HALF_ON_SCH_dy_4,INFIL_HALF_ON_SCH_dy_1,INFIL_HALF_ON_SCH_dy_3,INFIL_HALF_ON_SCH_dy_4,INFIL_HALF_ON_SCH_dy_4
Schedule:Week:Daily,CLOTHING_SCH_wk_1,CLOTHING_SCH_dy_1,CLOTHING_SCH_dy_1,CLOTHING_SCH_dy_1,CLOTHING_SCH_dy_1,CLOTHING_SCH_dy_1,CLOTHING_SCH_dy_1,CLOTHING_SCH_dy_1,CLOTHING_SCH_dy_1,CLOTHING_SCH_dy_1,CLOTHING_SCH_dy_1,CLOTHING_SCH_dy_1,CLOTHING_SCH_dy_1
Schedule:Week:Daily,CLOTHING_SCH_wk_2,CLOTHING_SCH_dy_2,CLOTHING_SCH_dy_2,CLOTHING_SCH_dy_2,CLOTHING_SCH_dy_2,CLOTHING_SCH_dy_2,CLOTHING_SCH_dy_2,CLOTHING_SCH_dy_2,CLOTHING_SCH_dy_2,CLOTHING_SCH_dy_2,CLOTHING_SCH_dy_2,CLOTHING_SCH_dy_2,CLOTHING_SCH_dy_2
Schedule:Week:Daily,CLOTHING_SCH_wk_3,CLOTHING_SCH_dy_3,CLOTHING_SCH_dy_3,CLOTHING_SCH_dy_3,CLOTHING_SCH_dy_3,CLOTHING_SCH_dy_3,CLOTHING_SCH_dy_3,CLOTHING_SCH_dy_3,CLOTHING_SCH_dy_3,CLOTHING_SCH_dy_3,CLOTHING_SCH_dy_3,CLOTHING_SCH_dy_3,CLOTHING_SCH_dy_3
Schedule:Week:Daily,WORK_EFF_SCH_wk_1,WORK_EFF_SCH_dy_1,WORK_EFF_SCH_dy_1,WORK_EFF_SCH_dy_1,WORK_EFF_SCH_dy_1,WORK_EFF_SCH_dy_1,WORK_EFF_SCH_dy_1,WORK_EFF_SCH_dy_1,WORK_EFF_SCH_dy_1,WORK_EFF_SCH_dy_1,WORK_EFF_SCH_dy_1,WORK_EFF_SCH_dy_1,WORK_EFF_SCH_dy_1
Schedule:Week:Daily,ACTIVITY_SCH_wk_1,ACTIVITY_SCH_dy_1,ACTIVITY_SCH_dy_1,ACTIVITY_SCH_dy_1,ACTIVITY_SCH_dy_1,ACTIVITY_SCH_dy_1,ACTIVITY_SCH_dy_1,ACTIVITY_SCH_dy_1,ACTIVITY_SCH_dy_1,ACTIVITY_SCH_dy_1,ACTIVITY_SCH_dy_1,ACTIVITY_SCH_dy_1,ACTIVITY_SCH_dy_1
Schedule:Week:Daily,AIR_VELO_SCH_wk_1,AIR_VELO_SCH_dy_1,AIR_VELO_SCH_dy_1,AIR_VELO_SCH_dy_1,AIR_VELO_SCH_dy_1,AIR_VELO_SCH_dy_1,AIR_VELO_SCH_dy_1,AIR_VELO_SCH_dy_1,AIR_VELO_SCH_dy_1,AIR_VELO_SCH_dy_1,AIR_VELO_SCH_dy_1,AIR_VELO_SCH_dy_1,AIR_VELO_SCH_dy_1
Schedule:Week:Daily,CLGSETP_SCH_wk_1,CLGSETP_SCH_dy_2,CLGSETP_SCH_dy_2,CLGSETP_SCH_dy_2,CLGSETP_SCH_dy_2,CLGSETP_SCH_dy_2,CLGSETP_SCH_dy_2,CLGSETP_SCH_dy_2,CLGSETP_SCH_dy_2,CLGSETP_SCH_dy_2,CLGSETP_SCH_dy_1,CLGSETP_SCH_dy_2,CLGSETP_SCH_dy_2
Schedule:Week:Daily,HTGSETP_SCH_wk_1,HTGSETP_SCH_dy_2,HTGSETP_SCH_dy_2,HTGSETP_SCH_dy_2,HTGSETP_SCH_dy_2,HTGSETP_SCH_dy_2,HTGSETP_SCH_dy_2,HTGSETP_SCH_dy_2,HTGSETP_SCH_dy_2,HTGSETP_SCH_dy_1,HTGSETP_SCH_dy_2,HTGSETP_SCH_dy_2,HTGSETP_SCH_dy_2
Schedule:Week:Daily,HVACOPERATIONSCHD_wk_1,HVACOPERATIONSCHD_dy_1,HVACOPERATIONSCHD_dy_1,HVACOPERATIONSCHD_dy_1,HVACOPERATIONSCHD_dy_1,HVACOPERATIONSCHD_dy_1,HVACOPERATIONSCHD_dy_1,HVACOPERATIONSCHD_dy_1,HVACOPERATIONSCHD_dy_1,HVACOPERATIONSCHD_dy_1,HVACOPERATIONSCHD_dy_1,HVACOPERATIONSCHD_dy_1,HVACOPERATIONSCHD_dy_1
Schedule:Week:Daily,MINOA_SCHED_wk_1,MINOA_SCHED_dy_1,MINOA_SCHED_dy_1,MINOA_SCHED_dy_1,MINOA_SCHED_dy_1,MINOA_SCHED_dy_1,MINOA_SCHED_dy_1,MINOA_SCHED_dy_1,MINOA_SCHED_dy_1,MINOA_SCHED_dy_1,MINOA_SCHED_dy_1,MINOA_SCHED_dy_1,MINOA_SCHED_dy_1
Schedule:Week:Daily,DUAL ZONE CONTROL TYPE SCHED_wk_1,DUAL ZONE CONTROL TYPE SCHED_dy_1,DUAL ZONE CONTROL TYPE SCHED_dy_1,DUAL ZONE CONTROL TYPE SCHED_dy_1,DUAL ZONE CONTROL TYPE SCHED_dy_1,DUAL ZONE CONTROL TYPE SCHED_dy_1,DUAL ZONE CONTROL TYPE SCHED_dy_1,DUAL ZONE CONTROL TYPE SCHED_dy_1,DUAL ZONE CONTROL TYPE SCHED_dy_1,DUAL ZONE CONTROL TYPE SCHED_dy_1,DUAL ZONE CONTROL TYPE SCHED_dy_1,DUAL ZONE CONTROL TYPE SCHED_dy_1,DUAL ZONE CONTROL TYPE SCHED_dy_1
Schedule:Week:Daily,BAKERY_CASE:1_WALKINFREEZER_CASECREDITREDUXSCHED_wk_1,BAKERY_CASE:1_WALKINFREEZER_CASECREDITREDUXSCHED_dy_1,BAKERY_CASE:1_WALKINFREEZER_CASECREDITREDUXSCHED_dy_1,BAKERY_CASE:1_WALKINFREEZER_CASECREDITREDUXSCHED_dy_1,BAKERY_CASE:1_WALKINFREEZER_CASECREDITREDUXSCHED_dy_1,BAKERY_CASE:1_WALKINFREEZER_CASECREDITREDUXSCHED_dy_1,BAKERY_CASE:1_WALKINFREEZER_CASECREDITREDUXSCHED_dy_1,BAKERY_CASE:1_WALKINFREEZER_CASECREDITREDUXSCHED_dy_1,BAKERY_CASE:1_WALKINFREEZER_CASECREDITREDUXSCHED_dy_1,BAKERY_CASE:1_WALKINFREEZER_CASECREDITREDUXSCHED_dy_1,BAKERY_CASE:1_WALKINFREEZER_CASECREDITREDUXSCHED_dy_1,BAKERY_CASE:1_WALKINFREEZER_CASECREDITREDUXSCHED_dy_1,BAKERY_CASE:1_WALKINFREEZER_CASECREDITREDUXSCHED_dy_1
Schedule:Week:Daily,BAKERY_CASE:1_WALKINFREEZER_CASEDEFROST2ADAYSCHED_wk_1,BAKERY_CASE:1_WALKINFREEZER_CASEDEFROST2ADAYSCHED_dy_1,BAKERY_CASE:1_WALKINFREEZER_CASEDEFROST2ADAYSCHED_dy_1,BAKERY_CASE:1_WALKINFREEZER_CASEDEFROST2ADAYSCHED_dy_1,BAKERY_CASE:1_WALKINFREEZER_CASEDEFROST2ADAYSCHED_dy_1,BAKERY_CASE:1_WALKINFREEZER_CASEDEFROST2ADAYSCHED_dy_1,BAKERY_CASE:1_WALKINFREEZER_CASEDEFROST2ADAYSCHED_dy_1,BAKERY_CASE:1_WALKINFREEZER_CASEDEFROST2ADAYSCHED_dy_1,BAKERY_CASE:1_WALKINFREEZER_CASEDEFROST2ADAYSCHED_dy_1,BAKERY_CASE:1_WALKINFREEZER_CASEDEFROST2ADAYSCHED_dy_1,BAKERY_CASE:1_WALKINFREEZER_CASEDEFROST2ADAYSCHED_dy_1,BAKERY_CASE:1_WALKINFREEZER_CASEDEFROST2ADAYSCHED_dy_1,BAKERY_CASE:1_WALKINFREEZER_CASEDEFROST2ADAYSCHED_dy_1
Schedule:Week:Daily,BAKERY_CASE:1_WALKINFREEZER_CASEDRIPDOWN2ADAYSCHED_wk_1,BAKERY_CASE:1_WALKINFREEZER_CASEDRIPDOWN2ADAYSCHED_dy_1,BAKERY_CASE:1_WALKINFREEZER_CASEDRIPDOWN2ADAYSCHED_dy_1,BAKERY_CASE:1_WALKINFREEZER_CASEDRIPDOWN2ADAYSCHED_dy_1,BAKERY_CASE:1_WALKINFREEZER_CASEDRIPDOWN2ADAYSCHED_dy_1,BAKERY_CASE:1_WALKINFREEZER_CASEDRIPDOWN2ADAYSCHED_dy_1,BAKERY_CASE:1_WALKINFREEZER_CASEDRIPDOWN2ADAYSCHED_dy_1,BAKERY_CASE:1_WALKINFREEZER_CASEDRIPDOWN2ADAYSCHED_dy_1,BAKERY_CASE:1_WALKINFREEZER_CASEDRIPDOWN2ADAYSCHED_dy_1,BAKERY_CASE:1_WALKINFREEZER_CASEDRIPDOWN2ADAYSCHED_dy_1,BAKERY_CASE:1_WALKINFREEZER_CASEDRIPDOWN2ADAYSCHED_dy_1,BAKERY_CASE:1_WALKINFREEZER_CASEDRIPDOWN2ADAYSCHED_dy_1,BAKERY_CASE:1_WALKINFREEZER_CASEDRIPDOWN2ADAYSCHED_dy_1
Schedule:Week:Daily,BAKERY_CASE:1_WALKINFREEZER_WALKINSTOCKINGSCHED_wk_1,BAKERY_CASE:1_WALKINFREEZER_WALKINSTOCKINGSCHED_dy_2,BAKERY_CASE:1_WALKINFREEZER_WALKINSTOCKINGSCHED_dy_2,BAKERY_CASE:1_WALKINFREEZER_WALKINSTOCKINGSCHED_dy_1,BAKERY_CASE:1_WALKINFREEZER_WALKINSTOCKINGSCHED_dy_2,BAKERY_CASE:1_WALKINFREEZER_WALKINSTOCKINGSCHED_dy_2,BAKERY_CASE:1_WALKINFREEZER_WALKINSTOCKINGSCHED_dy_1,BAKERY_CASE:1_WALKINFREEZER_WALKINSTOCKINGSCHED_dy_2,BAKERY_CASE:1_WALKINFREEZER_WALKINSTOCKINGSCHED_dy_2,BAKERY_CASE:1_WALKINFREEZER_WALKINSTOCKINGSCHED_dy_2,BAKERY_CASE:1_WALKINFREEZER_WALKINSTOCKINGSCHED_dy_2,BAKERY_CASE:1_WALKINFREEZER_WALKINSTOCKINGSCHED_dy_2,BAKERY_CASE:1_WALKINFREEZER_WALKINSTOCKINGSCHED_dy_2
Schedule:Week:Daily,DELI_CASE:1_ MULTIDECKDIARYANDDELICASE_CASECREDITREDUXSCHED_wk_1,DELI_CASE:1_ MULTIDECKDIARYANDDELICASE_CASECREDITREDUXSCHED_dy_1,DELI_CASE:1_ MULTIDECKDIARYANDDELICASE_CASECREDITREDUXSCHED_dy_1,DELI_CASE:1_ MULTIDECKDIARYANDDELICASE_CASECREDITREDUXSCHED_dy_1,DELI_CASE:1_ MULTIDECKDIARYANDDELICASE_CASECREDITREDUXSCHED_dy_1,DELI_CASE:1_ MULTIDECKDIARYANDDELICASE_CASECREDITREDUXSCHED_dy_1,DELI_CASE:1_ MULTIDECKDIARYANDDELICASE_CASECREDITREDUXSCHED_dy_1,DELI_CASE:1_ MULTIDECKDIARYANDDELICASE_CASECREDITREDUXSCHED_dy_1,DELI_CASE:1_ MULTIDECKDIARYANDDELICASE_CASECREDITREDUXSCHED_dy_1,DELI_CASE:1_ MULTIDECKDIARYANDDELICASE_CASECREDITREDUXSCHED_dy_1,DELI_CASE:1_ MULTIDECKDIARYANDDELICASE_CASECREDITREDUXSCHED_dy_1,DELI_CASE:1_ MULTIDECKDIARYANDDELICASE_CASECREDITREDUXSCHED_dy_1,DELI_CASE:1_ MULTIDECKDIARYANDDELICASE_CASECREDITREDUXSCHED_dy_1
Schedule:Week:Daily,DELI_CASE:1_ MULTIDECKDIARYANDDELICASE_CASEDEFROST2ADAYSCHED_wk_1,DELI_CASE:1_ MULTIDECKDIARYANDDELICASE_CASEDEFROST2ADAYSCHED_dy_1,DELI_CASE:1_ MULTIDECKDIARYANDDELICASE_CASEDEFROST2ADAYSCHED_dy_1,DELI_CASE:1_ MULTIDECKDIARYANDDELICASE_CASEDEFROST2ADAYSCHED_dy_1,DELI_CASE:1_ MULTIDECKDIARYANDDELICASE_CASEDEFROST2ADAYSCHED_dy_1,DELI_CASE:1_ MULTIDECKDIARYANDDELICASE_CASEDEFROST2ADAYSCHED_dy_1,DELI_CASE:1_ MULTIDECKDIARYANDDELICASE_CASEDEFROST2ADAYSCHED_dy_1,DELI_CASE:1_ MULTIDECKDIARYANDDELICASE_CASEDEFROST2ADAYSCHED_dy_1,DELI_CASE:1_ MULTIDECKDIARYANDDELICASE_CASEDEFROST2ADAYSCHED_dy_1,DELI_CASE:1_ MULTIDECKDIARYANDDELICASE_CASEDEFROST2ADAYSCHED_dy_1,DELI_CASE:1_ MULTIDECKDIARYANDDELICASE_CASEDEFROST2ADAYSCHED_dy_1,DELI_CASE:1_ MULTIDECKDIARYANDDELICASE_CASEDEFROST2ADAYSCHED_dy_1,DELI_CASE:1_ MULTIDECKDIARYANDDELICASE_CASEDEFROST2ADAYSCHED_dy_1
Schedule:Week:Daily,DELI_CASE:1_ MULTIDECKDIARYANDDELICASE_CASEDRIPDOWN2ADAYSCHED_wk_1,DELI_CASE:1_ MULTIDECKDIARYANDDELICASE_CASEDRIPDOWN2ADAYSCHED_dy_1,DELI_CASE:1_ MULTIDECKDIARYANDDELICASE_CASEDRIPDOWN2ADAYSCHED_dy_1,DELI_CASE:1_ MULTIDECKDIARYANDDELICASE_CASEDRIPDOWN2ADAYSCHED_dy_1,DELI_CASE:1_ MULTIDECKDIARYANDDELICASE_CASEDRIPDOWN2ADAYSCHED_dy_1,DELI_CASE:1_ MULTIDECKDIARYANDDELICASE_CASEDRIPDOWN2ADAYSCHED_dy_1,DELI_CASE:1_ MULTIDECKDIARYANDDELICASE_CASEDRIPDOWN2ADAYSCHED_dy_1,DELI_CASE:1_ MULTIDECKDIARYANDDELICASE_CASEDRIPDOWN2ADAYSCHED_dy_1,DELI_CASE:1_ MULTIDECKDIARYANDDELICASE_CASEDRIPDOWN2ADAYSCHED_dy_1,DELI_CASE:1_ MULTIDECKDIARYANDDELICASE_CASEDRIPDOWN2ADAYSCHED_dy_1,DELI_CASE:1_ MULTIDECKDIARYANDDELICASE_CASEDRIPDOWN2ADAYSCHED_dy_1,DELI_CASE:1_ MULTIDECKDIARYANDDELICASE_CASEDRIPDOWN2ADAYSCHED_dy_1,DELI_CASE:1_ MULTIDECKDIARYANDDELICASE_CASEDRIPDOWN2ADAYSCHED_dy_1
Schedule:Week:Daily,DELI_CASE:1_ MULTIDECKDIARYANDDELICASE_CASESTOCKINGSCHED_wk_1,DELI_CASE:1_ MULTIDECKDIARYANDDELICASE_CASESTOCKINGSCHED_dy_1,DELI_CASE:1_ MULTIDECKDIARYANDDELICASE_CASESTOCKINGSCHED_dy_1,DELI_CASE:1_ MULTIDECKDIARYANDDELICASE_CASESTOCKINGSCHED_dy_1,DELI_CASE:1_ MULTIDECKDIARYANDDELICASE_CASESTOCKINGSCHED_dy_1,DELI_CASE:1_ MULTIDECKDIARYANDDELICASE_CASESTOCKINGSCHED_dy_1,DELI_CASE:1_ MULTIDECKDIARYANDDELICASE_CASESTOCKINGSCHED_dy_1,DELI_CASE:1_ MULTIDECKDIARYANDDELICASE_CASESTOCKINGSCHED_dy_1,DELI_CASE:1_ MULTIDECKDIARYANDDELICASE_CASESTOCKINGSCHED_dy_1,DELI_CASE:1_ MULTIDECKDIARYANDDELICASE_CASESTOCKINGSCHED_dy_1,DELI_CASE:1_ MULTIDECKDIARYANDDELICASE_CASESTOCKINGSCHED_dy_1,DELI_CASE:1_ MULTIDECKDIARYANDDELICASE_CASESTOCKINGSCHED_dy_1,DELI_CASE:1_ MULTIDECKDIARYANDDELICASE_CASESTOCKINGSCHED_dy_1
Schedule:Week:Daily,DELI_CASE:2_WALKINFREEZER_CASECREDITREDUXSCHED_wk_1,DELI_CASE:2_WALKINFREEZER_CASECREDITREDUXSCHED_dy_1,DELI_CASE:2_WALKINFREEZER_CASECREDITREDUXSCHED_dy_1,DELI_CASE:2_WALKINFREEZER_CASECREDITREDUXSCHED_dy_1,DELI_CASE:2_WALKINFREEZER_CASECREDITREDUXSCHED_dy_1,DELI_CASE:2_WALKINFREEZER_CASECREDITREDUXSCHED_dy_1,DELI_CASE:2_WALKINFREEZER_CASECREDITREDUXSCHED_dy_1,DELI_CASE:2_WALKINFREEZER_CASECREDITREDUXSCHED_dy_1,DELI_CASE:2_WALKINFREEZER_CASECREDITREDUXSCHED_dy_1,DELI_CASE:2_WALKINFREEZER_CASECREDITREDUXSCHED_dy_1,DELI_CASE:2_WALKINFREEZER_CASECREDITREDUXSCHED_dy_1,DELI_CASE:2_WALKINFREEZER_CASECREDITREDUXSCHED_dy_1,DELI_CASE:2_WALKINFREEZER_CASECREDITREDUXSCHED_dy_1
Schedule:Week:Daily,DELI_CASE:2_WALKINFREEZER_CASEDEFROST2ADAYSCHED_wk_1,DELI_CASE:2_WALKINFREEZER_CASEDEFROST2ADAYSCHED_dy_1,DELI_CASE:2_WALKINFREEZER_CASEDEFROST2ADAYSCHED_dy_1,DELI_CASE:2_WALKINFREEZER_CASEDEFROST2ADAYSCHED_dy_1,DELI_CASE:2_WALKINFREEZER_CASEDEFROST2ADAYSCHED_dy_1,DELI_CASE:2_WALKINFREEZER_CASEDEFROST2ADAYSCHED_dy_1,DELI_CASE:2_WALKINFREEZER_CASEDEFROST2ADAYSCHED_dy_1,DELI_CASE:2_WALKINFREEZER_CASEDEFROST2ADAYSCHED_dy_1,DELI_CASE:2_WALKINFREEZER_CASEDEFROST2ADAYSCHED_dy_1,DELI_CASE:2_WALKINFREEZER_CASEDEFROST2ADAYSCHED_dy_1,DELI_CASE:2_WALKINFREEZER_CASEDEFROST2ADAYSCHED_dy_1,DELI_CASE:2_WALKINFREEZER_CASEDEFROST2ADAYSCHED_dy_1,DELI_CASE:2_WALKINFREEZER_CASEDEFROST2ADAYSCHED_dy_1
Schedule:Week:Daily,DELI_CASE:2_WALKINFREEZER_CASEDRIPDOWN2ADAYSCHED_wk_1,DELI_CASE:2_WALKINFREEZER_CASEDRIPDOWN2ADAYSCHED_dy_1,DELI_CASE:2_WALKINFREEZER_CASEDRIPDOWN2ADAYSCHED_dy_1,DELI_CASE:2_WALKINFREEZER_CASEDRIPDOWN2ADAYSCHED_dy_1,DELI_CASE:2_WALKINFREEZER_CASEDRIPDOWN2ADAYSCHED_dy_1,DELI_CASE:2_WALKINFREEZER_CASEDRIPDOWN2ADAYSCHED_dy_1,DELI_CASE:2_WALKINFREEZER_CASEDRIPDOWN2ADAYSCHED_dy_1,DELI_CASE:2_WALKINFREEZER_CASEDRIPDOWN2ADAYSCHED_dy_1,DELI_CASE:2_WALKINFREEZER_CASEDRIPDOWN2ADAYSCHED_dy_1,DELI_CASE:2_WALKINFREEZER_CASEDRIPDOWN2ADAYSCHED_dy_1,DELI_CASE:2_WALKINFREEZER_CASEDRIPDOWN2ADAYSCHED_dy_1,DELI_CASE:2_WALKINFREEZER_CASEDRIPDOWN2ADAYSCHED_dy_1,DELI_CASE:2_WALKINFREEZER_CASEDRIPDOWN2ADAYSCHED_dy_1
Schedule:Week:Daily,DELI_CASE:2_WALKINFREEZER_WALKINSTOCKINGSCHED_wk_1,DELI_CASE:2_WALKINFREEZER_WALKINSTOCKINGSCHED_dy_2,DELI_CASE:2_WALKINFREEZER_WALKINSTOCKINGSCHED_dy_2,DELI_CASE:2_WALKINFREEZER_WALKINSTOCKINGSCHED_dy_1,DELI_CASE:2_WALKINFREEZER_WALKINSTOCKINGSCHED_dy_2,DELI_CASE:2_WALKINFREEZER_WALKINSTOCKINGSCHED_dy_2,DELI_CASE:2_WALKINFREEZER_WALKINSTOCKINGSCHED_dy_1,DELI_CASE:2_WALKINFREEZER_WALKINSTOCKINGSCHED_dy_2,DELI_CASE:2_WALKINFREEZER_WALKINSTOCKINGSCHED_dy_2,DELI_CASE:2_WALKINFREEZER_WALKINSTOCKINGSCHED_dy_2,DELI_CASE:2_WALKINFREEZER_WALKINSTOCKINGSCHED_dy_2,DELI_CASE:2_WALKINFREEZER_WALKINSTOCKINGSCHED_dy_2,DELI_CASE:2_WALKINFREEZER_WALKINSTOCKINGSCHED_dy_2
Schedule:Week:Daily,PRODUCE_CASE:1_ MULTIDECKDIARYANDDELICASE_CASECREDITREDUXSCHED_wk_1,PRODUCE_CASE:1_ MULTIDECKDIARYANDDELICASE_CASECREDITREDUXSCHED_dy_1,PRODUCE_CASE:1_ MULTIDECKDIARYANDDELICASE_CASECREDITREDUXSCHED_dy_1,PRODUCE_CASE:1_ MULTIDECKDIARYANDDELICASE_CASECREDITREDUXSCHED_dy_1,PRODUCE_CASE:1_ MULTIDECKDIARYANDDELICASE_CASECREDITREDUXSCHED_dy_1,PRODUCE_CASE:1_ MULTIDECKDIARYANDDELICASE_CASECREDITREDUXSCHED_dy_1,PRODUCE_CASE:1_ MULTIDECKDIARYANDDELICASE_CASECREDITREDUXSCHED_dy_1,PRODUCE_CASE:1_ MULTIDECKDIARYANDDELICASE_CASECREDITREDUXSCHED_dy_1,PRODUCE_CASE:1_ MULTIDECKDIARYANDDELICASE_CASECREDITREDUXSCHED_dy_1,PRODUCE_CASE:1_ MULTIDECKDIARYANDDELICASE_CASECREDITREDUXSCHED_dy_1,PRODUCE_CASE:1_ MULTIDECKDIARYANDDELICASE_CASECREDITREDUXSCHED_dy_1,PRODUCE_CASE:1_ MULTIDECKDIARYANDDELICASE_CASECREDITREDUXSCHED_dy_1,PRODUCE_CASE:1_ MULTIDECKDIARYANDDELICASE_CASECREDITREDUXSCHED_dy_1
Schedule:Week:Daily,PRODUCE_CASE:1_ MULTIDECKDIARYANDDELICASE_CASEDEFROST2ADAYSCHED_wk_1,PRODUCE_CASE:1_ MULTIDECKDIARYANDDELICASE_CASEDEFROST2ADAYSCHED_dy_1,PRODUCE_CASE:1_ MULTIDECKDIARYANDDELICASE_CASEDEFROST2ADAYSCHED_dy_1,PRODUCE_CASE:1_ MULTIDECKDIARYANDDELICASE_CASEDEFROST2ADAYSCHED_dy_1,PRODUCE_CASE:1_ MULTIDECKDIARYANDDELICASE_CASEDEFROST2ADAYSCHED_dy_1,PRODUCE_CASE:1_ MULTIDECKDIARYANDDELICASE_CASEDEFROST2ADAYSCHED_dy_1,PRODUCE_CASE:1_ MULTIDECKDIARYANDDELICASE_CASEDEFROST2ADAYSCHED_dy_1,PRODUCE_CASE:1_ MULTIDECKDIARYANDDELICASE_CASEDEFROST2ADAYSCHED_dy_1,PRODUCE_CASE:1_ MULTIDECKDIARYANDDELICASE_CASEDEFROST2ADAYSCHED_dy_1,PRODUCE_CASE:1_ MULTIDECKDIARYANDDELICASE_CASEDEFROST2ADAYSCHED_dy_1,PRODUCE_CASE:1_ MULTIDECKDIARYANDDELICASE_CASEDEFROST2ADAYSCHED_dy_1,PRODUCE_CASE:1_ MULTIDECKDIARYANDDELICASE_CASEDEFROST2ADAYSCHED_dy_1,PRODUCE_CASE:1_ MULTIDECKDIARYANDDELICASE_CASEDEFROST2ADAYSCHED_dy_1
Schedule:Week:Daily,PRODUCE_CASE:1_ MULTIDECKDIARYANDDELICASE_CASEDRIPDOWN2ADAYSCHED_wk_1,PRODUCE_CASE:1_ MULTIDECKDIARYANDDELICASE_CASEDRIPDOWN2ADAYSCHED_dy_1,PRODUCE_CASE:1_ MULTIDECKDIARYANDDELICASE_CASEDRIPDOWN2ADAYSCHED_dy_1,PRODUCE_CASE:1_ MULTIDECKDIARYANDDELICASE_CASEDRIPDOWN2ADAYSCHED_dy_1,PRODUCE_CASE:1_ MULTIDECKDIARYANDDELICASE_CASEDRIPDOWN2ADAYSCHED_dy_1,PRODUCE_CASE:1_ MULTIDECKDIARYANDDELICASE_CASEDRIPDOWN2ADAYSCHED_dy_1,PRODUCE_CASE:1_ MULTIDECKDIARYANDDELICASE_CASEDRIPDOWN2ADAYSCHED_dy_1,PRODUCE_CASE:1_ MULTIDECKDIARYANDDELICASE_CASEDRIPDOWN2ADAYSCHED_dy_1,PRODUCE_CASE:1_ MULTIDECKDIARYANDDELICASE_CASEDRIPDOWN2ADAYSCHED_dy_1,PRODUCE_CASE:1_ MULTIDECKDIARYANDDELICASE_CASEDRIPDOWN2ADAYSCHED_dy_1,PRODUCE_CASE:1_ MULTIDECKDIARYANDDELICASE_CASEDRIPDOWN2ADAYSCHED_dy_1,PRODUCE_CASE:1_ MULTIDECKDIARYANDDELICASE_CASEDRIPDOWN2ADAYSCHED_dy_1,PRODUCE_CASE:1_ MULTIDECKDIARYANDDELICASE_CASEDRIPDOWN2ADAYSCHED_dy_1
Schedule:Week:Daily,PRODUCE_CASE:1_ MULTIDECKDIARYANDDELICASE_CASESTOCKINGSCHED_wk_1,PRODUCE_CASE:1_ MULTIDECKDIARYANDDELICASE_CASESTOCKINGSCHED_dy_1,PRODUCE_CASE:1_ MULTIDECKDIARYANDDELICASE_CASESTOCKINGSCHED_dy_1,PRODUCE_CASE:1_ MULTIDECKDIARYANDDELICASE_CASESTOCKINGSCHED_dy_1,PRODUCE_CASE:1_ MULTIDECKDIARYANDDELICASE_CASESTOCKINGSCHED_dy_1,PRODUCE_CASE:1_ MULTIDECKDIARYANDDELICASE_CASESTOCKINGSCHED_dy_1,PRODUCE_CASE:1_ MULTIDECKDIARYANDDELICASE_CASESTOCKINGSCHED_dy_1,PRODUCE_CASE:1_ MULTIDECKDIARYANDDELICASE_CASESTOCKINGSCHED_dy_1,PRODUCE_CASE:1_ MULTIDECKDIARYANDDELICASE_CASESTOCKINGSCHED_dy_1,PRODUCE_CASE:1_ MULTIDECKDIARYANDDELICASE_CASESTOCKINGSCHED_dy_1,PRODUCE_CASE:1_ MULTIDECKDIARYANDDELICASE_CASESTOCKINGSCHED_dy_1,PRODUCE_CASE:1_ MULTIDECKDIARYANDDELICASE_CASESTOCKINGSCHED_dy_1,PRODUCE_CASE:1_ MULTIDECKDIARYANDDELICASE_CASESTOCKINGSCHED_dy_1
Schedule:Week:Daily,SALES_CASE:1_MEATDISPLAYCASE_CASEDEFROST2ADAYSCHED_wk_1,SALES_CASE:1_MEATDISPLAYCASE_CASEDEFROST2ADAYSCHED_dy_1,SALES_CASE:1_MEATDISPLAYCASE_CASEDEFROST2ADAYSCHED_dy_1,SALES_CASE:1_MEATDISPLAYCASE_CASEDEFROST2ADAYSCHED_dy_1,SALES_CASE:1_MEATDISPLAYCASE_CASEDEFROST2ADAYSCHED_dy_1,SALES_CASE:1_MEATDISPLAYCASE_CASEDEFROST2ADAYSCHED_dy_1,SALES_CASE:1_MEATDISPLAYCASE_CASEDEFROST2ADAYSCHED_dy_1,SALES_CASE:1_MEATDISPLAYCASE_CASEDEFROST2ADAYSCHED_dy_1,SALES_CASE:1_MEATDISPLAYCASE_CASEDEFROST2ADAYSCHED_dy_1,SALES_CASE:1_MEATDISPLAYCASE_CASEDEFROST2ADAYSCHED_dy_1,SALES_CASE:1_MEATDISPLAYCASE_CASEDEFROST2ADAYSCHED_dy_1,SALES_CASE:1_MEATDISPLAYCASE_CASEDEFROST2ADAYSCHED_dy_1,SALES_CASE:1_MEATDISPLAYCASE_CASEDEFROST2ADAYSCHED_dy_1
Schedule:Week:Daily,SALES_CASE:1_MEATDISPLAYCASE_CASEDRIPDOWN2ADAYSCHED_wk_1,SALES_CASE:1_MEATDISPLAYCASE_CASEDRIPDOWN2ADAYSCHED_dy_1,SALES_CASE:1_MEATDISPLAYCASE_CASEDRIPDOWN2ADAYSCHED_dy_1,SALES_CASE:1_MEATDISPLAYCASE_CASEDRIPDOWN2ADAYSCHED_dy_1,SALES_CASE:1_MEATDISPLAYCASE_CASEDRIPDOWN2ADAYSCHED_dy_1,SALES_CASE:1_MEATDISPLAYCASE_CASEDRIPDOWN2ADAYSCHED_dy_1,SALES_CASE:1_MEATDISPLAYCASE_CASEDRIPDOWN2ADAYSCHED_dy_1,SALES_CASE:1_MEATDISPLAYCASE_CASEDRIPDOWN2ADAYSCHED_dy_1,SALES_CASE:1_MEATDISPLAYCASE_CASEDRIPDOWN2ADAYSCHED_dy_1,SALES_CASE:1_MEATDISPLAYCASE_CASEDRIPDOWN2ADAYSCHED_dy_1,SALES_CASE:1_MEATDISPLAYCASE_CASEDRIPDOWN2ADAYSCHED_dy_1,SALES_CASE:1_MEATDISPLAYCASE_CASEDRIPDOWN2ADAYSCHED_dy_1,SALES_CASE:1_MEATDISPLAYCASE_CASEDRIPDOWN2ADAYSCHED_dy_1
Schedule:Week:Daily,SALES_CASE:1_MEATDISPLAYCASE_CASESTOCKINGSCHED_wk_1,SALES_CASE:1_MEATDISPLAYCASE_CASESTOCKINGSCHED_dy_1,SALES_CASE:1_MEATDISPLAYCASE_CASESTOCKINGSCHED_dy_1,SALES_CASE:1_MEATDISPLAYCASE_CASESTOCKINGSCHED_dy_1,SALES_CASE:1_MEATDISPLAYCASE_CASESTOCKINGSCHED_dy_1,SALES_CASE:1_MEATDISPLAYCASE_CASESTOCKINGSCHED_dy_1,SALES_CASE:1_MEATDISPLAYCASE_CASESTOCKINGSCHED_dy_1,SALES_CASE:1_MEATDISPLAYCASE_CASESTOCKINGSCHED_dy_1,SALES_CASE:1_MEATDISPLAYCASE_CASESTOCKINGSCHED_dy_1,SALES_CASE:1_MEATDISPLAYCASE_CASESTOCKINGSCHED_dy_1,SALES_CASE:1_MEATDISPLAYCASE_CASESTOCKINGSCHED_dy_1,SALES_CASE:1_MEATDISPLAYCASE_CASESTOCKINGSCHED_dy_1,SALES_CASE:1_MEATDISPLAYCASE_CASESTOCKINGSCHED_dy_1
Schedule:Week:Daily,SALES_CASE:2_ MULTIDECKDIARYANDDELICASE_CASECREDITREDUXSCHED_wk_1,SALES_CASE:2_ MULTIDECKDIARYANDDELICASE_CASECREDITREDUXSCHED_dy_1,SALES_CASE:2_ MULTIDECKDIARYANDDELICASE_CASECREDITREDUXSCHED_dy_1,SALES_CASE:2_ MULTIDECKDIARYANDDELICASE_CASECREDITREDUXSCHED_dy_1,SALES_CASE:2_ MULTIDECKDIARYANDDELICASE_CASECREDITREDUXSCHED_dy_1,SALES_CASE:2_ MULTIDECKDIARYANDDELICASE_CASECREDITREDUXSCHED_dy_1,SALES_CASE:2_ MULTIDECKDIARYANDDELICASE_CASECREDITREDUXSCHED_dy_1,SALES_CASE:2_ MULTIDECKDIARYANDDELICASE_CASECREDITREDUXSCHED_dy_1,SALES_CASE:2_ MULTIDECKDIARYANDDELICASE_CASECREDITREDUXSCHED_dy_1,SALES_CASE:2_ MULTIDECKDIARYANDDELICASE_CASECREDITREDUXSCHED_dy_1,SALES_CASE:2_ MULTIDECKDIARYANDDELICASE_CASECREDITREDUXSCHED_dy_1,SALES_CASE:2_ MULTIDECKDIARYANDDELICASE_CASECREDITREDUXSCHED_dy_1,SALES_CASE:2_ MULTIDECKDIARYANDDELICASE_CASECREDITREDUXSCHED_dy_1
Schedule:Week:Daily,SALES_CASE:2_ MULTIDECKDIARYANDDELICASE_CASEDEFROST2ADAYSCHED_wk_1,SALES_CASE:2_ MULTIDECKDIARYANDDELICASE_CASEDEFROST2ADAYSCHED_dy_1,SALES_CASE:2_ MULTIDECKDIARYANDDELICASE_CASEDEFROST2ADAYSCHED_dy_1,SALES_CASE:2_ MULTIDECKDIARYANDDELICASE_CASEDEFROST2ADAYSCHED_dy_1,SALES_CASE:2_ MULTIDECKDIARYANDDELICASE_CASEDEFROST2ADAYSCHED_dy_1,SALES_CASE:2_ MULTIDECKDIARYANDDELICASE_CASEDEFROST2ADAYSCHED_dy_1,SALES_CASE:2_ MULTIDECKDIARYANDDELICASE_CASEDEFROST2ADAYSCHED_dy_1,SALES_CASE:2_ MULTIDECKDIARYANDDELICASE_CASEDEFROST2ADAYSCHED_dy_1,SALES_CASE:2_ MULTIDECKDIARYANDDELICASE_CASEDEFROST2ADAYSCHED_dy_1,SALES_CASE:2_ MULTIDECKDIARYANDDELICASE_CASEDEFROST2ADAYSCHED_dy_1,SALES_CASE:2_ MULTIDECKDIARYANDDELICASE_CASEDEFROST2ADAYSCHED_dy_1,SALES_CASE:2_ MULTIDECKDIARYANDDELICASE_CASEDEFROST2ADAYSCHED_dy_1,SALES_CASE:2_ MULTIDECKDIARYANDDELICASE_CASEDEFROST2ADAYSCHED_dy_1
Schedule:Week:Daily,SALES_CASE:2_ MULTIDECKDIARYANDDELICASE_CASEDRIPDOWN2ADAYSCHED_wk_1,SALES_CASE:2_ MULTIDECKDIARYANDDELICASE_CASEDRIPDOWN2ADAYSCHED_dy_1,SALES_CASE:2_ MULTIDECKDIARYANDDELICASE_CASEDRIPDOWN2ADAYSCHED_dy_1,SALES_CASE:2_ MULTIDECKDIARYANDDELICASE_CASEDRIPDOWN2ADAYSCHED_dy_1,SALES_CASE:2_ MULTIDECKDIARYANDDELICASE_CASEDRIPDOWN2ADAYSCHED_dy_1,SALES_CASE:2_ MULTIDECKDIARYANDDELICASE_CASEDRIPDOWN2ADAYSCHED_dy_1,SALES_CASE:2_ MULTIDECKDIARYANDDELICASE_CASEDRIPDOWN2ADAYSCHED_dy_1,SALES_CASE:2_ MULTIDECKDIARYANDDELICASE_CASEDRIPDOWN2ADAYSCHED_dy_1,SALES_CASE:2_ MULTIDECKDIARYANDDELICASE_CASEDRIPDOWN2ADAYSCHED_dy_1,SALES_CASE:2_ MULTIDECKDIARYANDDELICASE_CASEDRIPDOWN2ADAYSCHED_dy_1,SALES_CASE:2_ MULTIDECKDIARYANDDELICASE_CASEDRIPDOWN2ADAYSCHED_dy_1,SALES_CASE:2_ MULTIDECKDIARYANDDELICASE_CASEDRIPDOWN2ADAYSCHED_dy_1,SALES_CASE:2_ MULTIDECKDIARYANDDELICASE_CASEDRIPDOWN2ADAYSCHED_dy_1
Schedule:Week:Daily,SALES_CASE:2_ MULTIDECKDIARYANDDELICASE_CASESTOCKINGSCHED_wk_1,SALES_CASE:2_ MULTIDECKDIARYANDDELICASE_CASESTOCKINGSCHED_dy_1,SALES_CASE:2_ MULTIDECKDIARYANDDELICASE_CASESTOCKINGSCHED_dy_1,SALES_CASE:2_ MULTIDECKDIARYANDDELICASE_CASESTOCKINGSCHED_dy_1,SALES_CASE:2_ MULTIDECKDIARYANDDELICASE_CASESTOCKINGSCHED_dy_1,SALES_CASE:2_ MULTIDECKDIARYANDDELICASE_CASESTOCKINGSCHED_dy_1,SALES_CASE:2_ MULTIDECKDIARYANDDELICASE_CASESTOCKINGSCHED_dy_1,SALES_CASE:2_ MULTIDECKDIARYANDDELICASE_CASESTOCKINGSCHED_dy_1,SALES_CASE:2_ MULTIDECKDIARYANDDELICASE_CASESTOCKINGSCHED_dy_1,SALES_CASE:2_ MULTIDECKDIARYANDDELICASE_CASESTOCKINGSCHED_dy_1,SALES_CASE:2_ MULTIDECKDIARYANDDELICASE_CASESTOCKINGSCHED_dy_1,SALES_CASE:2_ MULTIDECKDIARYANDDELICASE_CASESTOCKINGSCHED_dy_1,SALES_CASE:2_ MULTIDECKDIARYANDDELICASE_CASESTOCKINGSCHED_dy_1
Schedule:Week:Daily,SALES_CASE:3_GLASSDOORFROZENFOOD_CASECREDITREDUXSCHED_wk_1,SALES_CASE:3_GLASSDOORFROZENFOOD_CASECREDITREDUXSCHED_dy_1,SALES_CASE:3_GLASSDOORFROZENFOOD_CASECREDITREDUXSCHED_dy_1,SALES_CASE:3_GLASSDOORFROZENFOOD_CASECREDITREDUXSCHED_dy_1,SALES_CASE:3_GLASSDOORFROZENFOOD_CASECREDITREDUXSCHED_dy_1,SALES_CASE:3_GLASSDOORFROZENFOOD_CASECREDITREDUXSCHED_dy_1,SALES_CASE:3_GLASSDOORFROZENFOOD_CASECREDITREDUXSCHED_dy_1,SALES_CASE:3_GLASSDOORFROZENFOOD_CASECREDITREDUXSCHED_dy_1,SALES_CASE:3_GLASSDOORFROZENFOOD_CASECREDITREDUXSCHED_dy_1,SALES_CASE:3_GLASSDOORFROZENFOOD_CASECREDITREDUXSCHED_dy_1,SALES_CASE:3_GLASSDOORFROZENFOOD_CASECREDITREDUXSCHED_dy_1,SALES_CASE:3_GLASSDOORFROZENFOOD_CASECREDITREDUXSCHED_dy_1,SALES_CASE:3_GLASSDOORFROZENFOOD_CASECREDITREDUXSCHED_dy_1
Schedule:Week:Daily,SALES_CASE:3_GLASSDOORFROZENFOOD_CASEDEFROST2ADAYSCHED_wk_1,SALES_CASE:3_GLASSDOORFROZENFOOD_CASEDEFROST2ADAYSCHED_dy_1,SALES_CASE:3_GLASSDOORFROZENFOOD_CASEDEFROST2ADAYSCHED_dy_1,SALES_CASE:3_GLASSDOORFROZENFOOD_CASEDEFROST2ADAYSCHED_dy_1,SALES_CASE:3_GLASSDOORFROZENFOOD_CASEDEFROST2ADAYSCHED_dy_1,SALES_CASE:3_GLASSDOORFROZENFOOD_CASEDEFROST2ADAYSCHED_dy_1,SALES_CASE:3_GLASSDOORFROZENFOOD_CASEDEFROST2ADAYSCHED_dy_1,SALES_CASE:3_GLASSDOORFROZENFOOD_CASEDEFROST2ADAYSCHED_dy_1,SALES_CASE:3_GLASSDOORFROZENFOOD_CASEDEFROST2ADAYSCHED_dy_1,SALES_CASE:3_GLASSDOORFROZENFOOD_CASEDEFROST2ADAYSCHED_dy_1,SALES_CASE:3_GLASSDOORFROZENFOOD_CASEDEFROST2ADAYSCHED_dy_1,SALES_CASE:3_GLASSDOORFROZENFOOD_CASEDEFROST2ADAYSCHED_dy_1,SALES_CASE:3_GLASSDOORFROZENFOOD_CASEDEFROST2ADAYSCHED_dy_1
Schedule:Week:Daily,SALES_CASE:3_GLASSDOORFROZENFOOD_CASEDRIPDOWN2ADAYSCHED_wk_1,SALES_CASE:3_GLASSDOORFROZENFOOD_CASEDRIPDOWN2ADAYSCHED_dy_1,SALES_CASE:3_GLASSDOORFROZENFOOD_CASEDRIPDOWN2ADAYSCHED_dy_1,SALES_CASE:3_GLASSDOORFROZENFOOD_CASEDRIPDOWN2ADAYSCHED_dy_1,SALES_CASE:3_GLASSDOORFROZENFOOD_CASEDRIPDOWN2ADAYSCHED_dy_1,SALES_CASE:3_GLASSDOORFROZENFOOD_CASEDRIPDOWN2ADAYSCHED_dy_1,SALES_CASE:3_GLASSDOORFROZENFOOD_CASEDRIPDOWN2ADAYSCHED_dy_1,SALES_CASE:3_GLASSDOORFROZENFOOD_CASEDRIPDOWN2ADAYSCHED_dy_1,SALES_CASE:3_GLASSDOORFROZENFOOD_CASEDRIPDOWN2ADAYSCHED_dy_1,SALES_CASE:3_GLASSDOORFROZENFOOD_CASEDRIPDOWN2ADAYSCHED_dy_1,SALES_CASE:3_GLASSDOORFROZENFOOD_CASEDRIPDOWN2ADAYSCHED_dy_1,SALES_CASE:3_GLASSDOORFROZENFOOD_CASEDRIPDOWN2ADAYSCHED_dy_1,SALES_CASE:3_GLASSDOORFROZENFOOD_CASEDRIPDOWN2ADAYSCHED_dy_1
Schedule:Week:Daily,SALES_CASE:3_GLASSDOORFROZENFOOD_CASESTOCKINGSCHED_wk_1,SALES_CASE:3_GLASSDOORFROZENFOOD_CASESTOCKINGSCHED_dy_1,SALES_CASE:3_GLASSDOORFROZENFOOD_CASESTOCKINGSCHED_dy_1,SALES_CASE:3_GLASSDOORFROZENFOOD_CASESTOCKINGSCHED_dy_1,SALES_CASE:3_GLASSDOORFROZENFOOD_CASESTOCKINGSCHED_dy_1,SALES_CASE:3_GLASSDOORFROZENFOOD_CASESTOCKINGSCHED_dy_1,SALES_CASE:3_GLASSDOORFROZENFOOD_CASESTOCKINGSCHED_dy_1,SALES_CASE:3_GLASSDOORFROZENFOOD_CASESTOCKINGSCHED_dy_1,SALES_CASE:3_GLASSDOORFROZENFOOD_CASESTOCKINGSCHED_dy_1,SALES_CASE:3_GLASSDOORFROZENFOOD_CASESTOCKINGSCHED_dy_1,SALES_CASE:3_GLASSDOORFROZENFOOD_CASESTOCKINGSCHED_dy_1,SALES_CASE:3_GLASSDOORFROZENFOOD_CASESTOCKINGSCHED_dy_1,SALES_CASE:3_GLASSDOORFROZENFOOD_CASESTOCKINGSCHED_dy_1
Schedule:Week:Daily,SALES_CASE:4_OPENWELLICECREAMDISPLAYCASE_CASECREDITREDUXSCHED_wk_1,SALES_CASE:4_OPENWELLICECREAMDISPLAYCASE_CASECREDITREDUXSCHED_dy_1,SALES_CASE:4_OPENWELLICECREAMDISPLAYCASE_CASECREDITREDUXSCHED_dy_1,SALES_CASE:4_OPENWELLICECREAMDISPLAYCASE_CASECREDITREDUXSCHED_dy_1,SALES_CASE:4_OPENWELLICECREAMDISPLAYCASE_CASECREDITREDUXSCHED_dy_1,SALES_CASE:4_OPENWELLICECREAMDISPLAYCASE_CASECREDITREDUXSCHED_dy_1,SALES_CASE:4_OPENWELLICECREAMDISPLAYCASE_CASECREDITREDUXSCHED_dy_1,SALES_CASE:4_OPENWELLICECREAMDISPLAYCASE_CASECREDITREDUXSCHED_dy_1,SALES_CASE:4_OPENWELLICECREAMDISPLAYCASE_CASECREDITREDUXSCHED_dy_1,SALES_CASE:4_OPENWELLICECREAMDISPLAYCASE_CASECREDITREDUXSCHED_dy_1,SALES_CASE:4_OPENWELLICECREAMDISPLAYCASE_CASECREDITREDUXSCHED_dy_1,SALES_CASE:4_OPENWELLICECREAMDISPLAYCASE_CASECREDITREDUXSCHED_dy_1,SALES_CASE:4_OPENWELLICECREAMDISPLAYCASE_CASECREDITREDUXSCHED_dy_1
Schedule:Week:Daily,SALES_CASE:4_OPENWELLICECREAMDISPLAYCASE_CASEDEFROST2ADAYSCHED_wk_1,SALES_CASE:4_OPENWELLICECREAMDISPLAYCASE_CASEDEFROST2ADAYSCHED_dy_1,SALES_CASE:4_OPENWELLICECREAMDISPLAYCASE_CASEDEFROST2ADAYSCHED_dy_1,SALES_CASE:4_OPENWELLICECREAMDISPLAYCASE_CASEDEFROST2ADAYSCHED_dy_1,SALES_CASE:4_OPENWELLICECREAMDISPLAYCASE_CASEDEFROST2ADAYSCHED_dy_1,SALES_CASE:4_OPENWELLICECREAMDISPLAYCASE_CASEDEFROST2ADAYSCHED_dy_1,SALES_CASE:4_OPENWELLICECREAMDISPLAYCASE_CASEDEFROST2ADAYSCHED_dy_1,SALES_CASE:4_OPENWELLICECREAMDISPLAYCASE_CASEDEFROST2ADAYSCHED_dy_1,SALES_CASE:4_OPENWELLICECREAMDISPLAYCASE_CASEDEFROST2ADAYSCHED_dy_1,SALES_CASE:4_OPENWELLICECREAMDISPLAYCASE_CASEDEFROST2ADAYSCHED_dy_1,SALES_CASE:4_OPENWELLICECREAMDISPLAYCASE_CASEDEFROST2ADAYSCHED_dy_1,SALES_CASE:4_OPENWELLICECREAMDISPLAYCASE_CASEDEFROST2ADAYSCHED_dy_1,SALES_CASE:4_OPENWELLICECREAMDISPLAYCASE_CASEDEFROST2ADAYSCHED_dy_1
Schedule:Week:Daily,SALES_CASE:4_OPENWELLICECREAMDISPLAYCASE_CASEDRIPDOWN2ADAYSCHED_wk_1,SALES_CASE:4_OPENWELLICECREAMDISPLAYCASE_CASEDRIPDOWN2ADAYSCHED_dy_1,SALES_CASE:4_OPENWELLICECREAMDISPLAYCASE_CASEDRIPDOWN2ADAYSCHED_dy_1,SALES_CASE:4_OPENWELLICECREAMDISPLAYCASE_CASEDRIPDOWN2ADAYSCHED_dy_1,SALES_CASE:4_OPENWELLICECREAMDISPLAYCASE_CASEDRIPDOWN2ADAYSCHED_dy_1,SALES_CASE:4_OPENWELLICECREAMDISPLAYCASE_CASEDRIPDOWN2ADAYSCHED_dy_1,SALES_CASE:4_OPENWELLICECREAMDISPLAYCASE_CASEDRIPDOWN2ADAYSCHED_dy_1,SALES_CASE:4_OPENWELLICECREAMDISPLAYCASE_CASEDRIPDOWN2ADAYSCHED_dy_1,SALES_CASE:4_OPENWELLICECREAMDISPLAYCASE_CASEDRIPDOWN2ADAYSCHED_dy_1,SALES_CASE:4_OPENWELLICECREAMDISPLAYCASE_CASEDRIPDOWN2ADAYSCHED_dy_1,SALES_CASE:4_OPENWELLICECREAMDISPLAYCASE_CASEDRIPDOWN2ADAYSCHED_dy_1,SALES_CASE:4_OPENWELLICECREAMDISPLAYCASE_CASEDRIPDOWN2ADAYSCHED_dy_1,SALES_CASE:4_OPENWELLICECREAMDISPLAYCASE_CASEDRIPDOWN2ADAYSCHED_dy_1
Schedule:Week:Daily,SALES_CASE:4_OPENWELLICECREAMDISPLAYCASE_CASESTOCKINGSCHED_wk_1,SALES_CASE:4_OPENWELLICECREAMDISPLAYCASE_CASESTOCKINGSCHED_dy_1,SALES_CASE:4_OPENWELLICECREAMDISPLAYCASE_CASESTOCKINGSCHED_dy_1,SALES_CASE:4_OPENWELLICECREAMDISPLAYCASE_CASESTOCKINGSCHED_dy_1,SALES_CASE:4_OPENWELLICECREAMDISPLAYCASE_CASESTOCKINGSCHED_dy_1,SALES_CASE:4_OPENWELLICECREAMDISPLAYCASE_CASESTOCKINGSCHED_dy_1,SALES_CASE:4_OPENWELLICECREAMDISPLAYCASE_CASESTOCKINGSCHED_dy_1,SALES_CASE:4_OPENWELLICECREAMDISPLAYCASE_CASESTOCKINGSCHED_dy_1,SALES_CASE:4_OPENWELLICECREAMDISPLAYCASE_CASESTOCKINGSCHED_dy_1,SALES_CASE:4_OPENWELLICECREAMDISPLAYCASE_CASESTOCKINGSCHED_dy_1,SALES_CASE:4_OPENWELLICECREAMDISPLAYCASE_CASESTOCKINGSCHED_dy_1,SALES_CASE:4_OPENWELLICECREAMDISPLAYCASE_CASESTOCKINGSCHED_dy_1,SALES_CASE:4_OPENWELLICECREAMDISPLAYCASE_CASESTOCKINGSCHED_dy_1
Schedule:Week:Daily,SALES_CASE:5_WALKINFREEZER_CASECREDITREDUXSCHED_wk_1,SALES_CASE:5_WALKINFREEZER_CASECREDITREDUXSCHED_dy_1,SALES_CASE:5_WALKINFREEZER_CASECREDITREDUXSCHED_dy_1,SALES_CASE:5_WALKINFREEZER_CASECREDITREDUXSCHED_dy_1,SALES_CASE:5_WALKINFREEZER_CASECREDITREDUXSCHED_dy_1,SALES_CASE:5_WALKINFREEZER_CASECREDITREDUXSCHED_dy_1,SALES_CASE:5_WALKINFREEZER_CASECREDITREDUXSCHED_dy_1,SALES_CASE:5_WALKINFREEZER_CASECREDITREDUXSCHED_dy_1,SALES_CASE:5_WALKINFREEZER_CASECREDITREDUXSCHED_dy_1,SALES_CASE:5_WALKINFREEZER_CASECREDITREDUXSCHED_dy_1,SALES_CASE:5_WALKINFREEZER_CASECREDITREDUXSCHED_dy_1,SALES_CASE:5_WALKINFREEZER_CASECREDITREDUXSCHED_dy_1,SALES_CASE:5_WALKINFREEZER_CASECREDITREDUXSCHED_dy_1
Schedule:Week:Daily,SALES_CASE:5_WALKINFREEZER_CASEDEFROST2ADAYSCHED_wk_1,SALES_CASE:5_WALKINFREEZER_CASEDEFROST2ADAYSCHED_dy_1,SALES_CASE:5_WALKINFREEZER_CASEDEFROST2ADAYSCHED_dy_1,SALES_CASE:5_WALKINFREEZER_CASEDEFROST2ADAYSCHED_dy_1,SALES_CASE:5_WALKINFREEZER_CASEDEFROST2ADAYSCHED_dy_1,SALES_CASE:5_WALKINFREEZER_CASEDEFROST2ADAYSCHED_dy_1,SALES_CASE:5_WALKINFREEZER_CASEDEFROST2ADAYSCHED_dy_1,SALES_CASE:5_WALKINFREEZER_CASEDEFROST2ADAYSCHED_dy_1,SALES_CASE:5_WALKINFREEZER_CASEDEFROST2ADAYSCHED_dy_1,SALES_CASE:5_WALKINFREEZER_CASEDEFROST2ADAYSCHED_dy_1,SALES_CASE:5_WALKINFREEZER_CASEDEFROST2ADAYSCHED_dy_1,SALES_CASE:5_WALKINFREEZER_CASEDEFROST2ADAYSCHED_dy_1,SALES_CASE:5_WALKINFREEZER_CASEDEFROST2ADAYSCHED_dy_1
Schedule:Week:Daily,SALES_CASE:5_WALKINFREEZER_CASEDRIPDOWN2ADAYSCHED_wk_1,SALES_CASE:5_WALKINFREEZER_CASEDRIPDOWN2ADAYSCHED_dy_1,SALES_CASE:5_WALKINFREEZER_CASEDRIPDOWN2ADAYSCHED_dy_1,SALES_CASE:5_WALKINFREEZER_CASEDRIPDOWN2ADAYSCHED_dy_1,SALES_CASE:5_WALKINFREEZER_CASEDRIPDOWN2ADAYSCHED_dy_1,SALES_CASE:5_WALKINFREEZER_CASEDRIPDOWN2ADAYSCHED_dy_1,SALES_CASE:5_WALKINFREEZER_CASEDRIPDOWN2ADAYSCHED_dy_1,SALES_CASE:5_WALKINFREEZER_CASEDRIPDOWN2ADAYSCHED_dy_1,SALES_CASE:5_WALKINFREEZER_CASEDRIPDOWN2ADAYSCHED_dy_1,SALES_CASE:5_WALKINFREEZER_CASEDRIPDOWN2ADAYSCHED_dy_1,SALES_CASE:5_WALKINFREEZER_CASEDRIPDOWN2ADAYSCHED_dy_1,SALES_CASE:5_WALKINFREEZER_CASEDRIPDOWN2ADAYSCHED_dy_1,SALES_CASE:5_WALKINFREEZER_CASEDRIPDOWN2ADAYSCHED_dy_1
Schedule:Week:Daily,SALES_CASE:5_WALKINFREEZER_WALKINSTOCKINGSCHED_wk_1,SALES_CASE:5_WALKINFREEZER_WALKINSTOCKINGSCHED_dy_2,SALES_CASE:5_WALKINFREEZER_WALKINSTOCKINGSCHED_dy_2,SALES_CASE:5_WALKINFREEZER_WALKINSTOCKINGSCHED_dy_1,SALES_CASE:5_WALKINFREEZER_WALKINSTOCKINGSCHED_dy_2,SALES_CASE:5_WALKINFREEZER_WALKINSTOCKINGSCHED_dy_2,SALES_CASE:5_WALKINFREEZER_WALKINSTOCKINGSCHED_dy_1,SALES_CASE:5_WALKINFREEZER_WALKINSTOCKINGSCHED_dy_2,SALES_CASE:5_WALKINFREEZER_WALKINSTOCKINGSCHED_dy_2,SALES_CASE:5_WALKINFREEZER_WALKINSTOCKINGSCHED_dy_2,SALES_CASE:5_WALKINFREEZER_WALKINSTOCKINGSCHED_dy_2,SALES_CASE:5_WALKINFREEZER_WALKINSTOCKINGSCHED_dy_2,SALES_CASE:5_WALKINFREEZER_WALKINSTOCKINGSCHED_dy_2
Schedule:Week:Daily,SALES_CASE:6_WALKINFREEZER_CASECREDITREDUXSCHED_wk_1,SALES_CASE:6_WALKINFREEZER_CASECREDITREDUXSCHED_dy_1,SALES_CASE:6_WALKINFREEZER_CASECREDITREDUXSCHED_dy_1,SALES_CASE:6_WALKINFREEZER_CASECREDITREDUXSCHED_dy_1,SALES_CASE:6_WALKINFREEZER_CASECREDITREDUXSCHED_dy_1,SALES_CASE:6_WALKINFREEZER_CASECREDITREDUXSCHED_dy_1,SALES_CASE:6_WALKINFREEZER_CASECREDITREDUXSCHED_dy_1,SALES_CASE:6_WALKINFREEZER_CASECREDITREDUXSCHED_dy_1,SALES_CASE:6_WALKINFREEZER_CASECREDITREDUXSCHED_dy_1,SALES_CASE:6_WALKINFREEZER_CASECREDITREDUXSCHED_dy_1,SALES_CASE:6_WALKINFREEZER_CASECREDITREDUXSCHED_dy_1,SALES_CASE:6_WALKINFREEZER_CASECREDITREDUXSCHED_dy_1,SALES_CASE:6_WALKINFREEZER_CASECREDITREDUXSCHED_dy_1
Schedule:Week:Daily,SALES_CASE:6_WALKINFREEZER_CASEDEFROST2ADAYSCHED_wk_1,SALES_CASE:6_WALKINFREEZER_CASEDEFROST2ADAYSCHED_dy_1,SALES_CASE:6_WALKINFREEZER_CASEDEFROST2ADAYSCHED_dy_1,SALES_CASE:6_WALKINFREEZER_CASEDEFROST2ADAYSCHED_dy_1,SALES_CASE:6_WALKINFREEZER_CASEDEFROST2ADAYSCHED_dy_1,SALES_CASE:6_WALKINFREEZER_CASEDEFROST2ADAYSCHED_dy_1,SALES_CASE:6_WALKINFREEZER_CASEDEFROST2ADAYSCHED_dy_1,SALES_CASE:6_WALKINFREEZER_CASEDEFROST2ADAYSCHED_dy_1,SALES_CASE:6_WALKINFREEZER_CASEDEFROST2ADAYSCHED_dy_1,SALES_CASE:6_WALKINFREEZER_CASEDEFROST2ADAYSCHED_dy_1,SALES_CASE:6_WALKINFREEZER_CASEDEFROST2ADAYSCHED_dy_1,SALES_CASE:6_WALKINFREEZER_CASEDEFROST2ADAYSCHED_dy_1,SALES_CASE:6_WALKINFREEZER_CASEDEFROST2ADAYSCHED_dy_1
Schedule:Week:Daily,SALES_CASE:6_WALKINFREEZER_CASEDRIPDOWN2ADAYSCHED_wk_1,SALES_CASE:6_WALKINFREEZER_CASEDRIPDOWN2ADAYSCHED_dy_1,SALES_CASE:6_WALKINFREEZER_CASEDRIPDOWN2ADAYSCHED_dy_1,SALES_CASE:6_WALKINFREEZER_CASEDRIPDOWN2ADAYSCHED_dy_1,SALES_CASE:6_WALKINFREEZER_CASEDRIPDOWN2ADAYSCHED_dy_1,SALES_CASE:6_WALKINFREEZER_CASEDRIPDOWN2ADAYSCHED_dy_1,SALES_CASE:6_WALKINFREEZER_CASEDRIPDOWN2ADAYSCHED_dy_1,SALES_CASE:6_WALKINFREEZER_CASEDRIPDOWN2ADAYSCHED_dy_1,SALES_CASE:6_WALKINFREEZER_CASEDRIPDOWN2ADAYSCHED_dy_1,SALES_CASE:6_WALKINFREEZER_CASEDRIPDOWN2ADAYSCHED_dy_1,SALES_CASE:6_WALKINFREEZER_CASEDRIPDOWN2ADAYSCHED_dy_1,SALES_CASE:6_WALKINFREEZER_CASEDRIPDOWN2ADAYSCHED_dy_1,SALES_CASE:6_WALKINFREEZER_CASEDRIPDOWN2ADAYSCHED_dy_1
Schedule:Week:Daily,SALES_CASE:6_WALKINFREEZER_WALKINSTOCKINGSCHED_wk_1,SALES_CASE:6_WALKINFREEZER_WALKINSTOCKINGSCHED_dy_2,SALES_CASE:6_WALKINFREEZER_WALKINSTOCKINGSCHED_dy_2,SALES_CASE:6_WALKINFREEZER_WALKINSTOCKINGSCHED_dy_1,SALES_CASE:6_WALKINFREEZER_WALKINSTOCKINGSCHED_dy_2,SALES_CASE:6_WALKINFREEZER_WALKINSTOCKINGSCHED_dy_2,SALES_CASE:6_WALKINFREEZER_WALKINSTOCKINGSCHED_dy_1,SALES_CASE:6_WALKINFREEZER_WALKINSTOCKINGSCHED_dy_2,SALES_CASE:6_WALKINFREEZER_WALKINSTOCKINGSCHED_dy_2,SALES_CASE:6_WALKINFREEZER_WALKINSTOCKINGSCHED_dy_2,SALES_CASE:6_WALKINFREEZER_WALKINSTOCKINGSCHED_dy_2,SALES_CASE:6_WALKINFREEZER_WALKINSTOCKINGSCHED_dy_2,SALES_CASE:6_WALKINFREEZER_WALKINSTOCKINGSCHED_dy_2
Schedule:Week:Daily,SALES_CASE:7_WALKINFREEZER_CASECREDITREDUXSCHED_wk_1,SALES_CASE:7_WALKINFREEZER_CASECREDITREDUXSCHED_dy_1,SALES_CASE:7_WALKINFREEZER_CASECREDITREDUXSCHED_dy_1,SALES_CASE:7_WALKINFREEZER_CASECREDITREDUXSCHED_dy_1,SALES_CASE:7_WALKINFREEZER_CASECREDITREDUXSCHED_dy_1,SALES_CASE:7_WALKINFREEZER_CASECREDITREDUXSCHED_dy_1,SALES_CASE:7_WALKINFREEZER_CASECREDITREDUXSCHED_dy_1,SALES_CASE:7_WALKINFREEZER_CASECREDITREDUXSCHED_dy_1,SALES_CASE:7_WALKINFREEZER_CASECREDITREDUXSCHED_dy_1,SALES_CASE:7_WALKINFREEZER_CASECREDITREDUXSCHED_dy_1,SALES_CASE:7_WALKINFREEZER_CASECREDITREDUXSCHED_dy_1,SALES_CASE:7_WALKINFREEZER_CASECREDITREDUXSCHED_dy_1,SALES_CASE:7_WALKINFREEZER_CASECREDITREDUXSCHED_dy_1
Schedule:Week:Daily,SALES_CASE:7_WALKINFREEZER_CASEDEFROST2ADAYSCHED_wk_1,SALES_CASE:7_WALKINFREEZER_CASEDEFROST2ADAYSCHED_dy_1,SALES_CASE:7_WALKINFREEZER_CASEDEFROST2ADAYSCHED_dy_1,SALES_CASE:7_WALKINFREEZER_CASEDEFROST2ADAYSCHED_dy_1,SALES_CASE:7_WALKINFREEZER_CASEDEFROST2ADAYSCHED_dy_1,SALES_CASE:7_WALKINFREEZER_CASEDEFROST2ADAYSCHED_dy_1,SALES_CASE:7_WALKINFREEZER_CASEDEFROST2ADAYSCHED_dy_1,SALES_CASE:7_WALKINFREEZER_CASEDEFROST2ADAYSCHED_dy_1,SALES_CASE:7_WALKINFREEZER_CASEDEFROST2ADAYSCHED_dy_1,SALES_CASE:7_WALKINFREEZER_CASEDEFROST2ADAYSCHED_dy_1,SALES_CASE:7_WALKINFREEZER_CASEDEFROST2ADAYSCHED_dy_1,SALES_CASE:7_WALKINFREEZER_CASEDEFROST2ADAYSCHED_dy_1,SALES_CASE:7_WALKINFREEZER_CASEDEFROST2ADAYSCHED_dy_1
Schedule:Week:Daily,SALES_CASE:7_WALKINFREEZER_CASEDRIPDOWN2ADAYSCHED_wk_1,SALES_CASE:7_WALKINFREEZER_CASEDRIPDOWN2ADAYSCHED_dy_1,SALES_CASE:7_WALKINFREEZER_CASEDRIPDOWN2ADAYSCHED_dy_1,SALES_CASE:7_WALKINFREEZER_CASEDRIPDOWN2ADAYSCHED_dy_1,SALES_CASE:7_WALKINFREEZER_CASEDRIPDOWN2ADAYSCHED_dy_1,SALES_CASE:7_WALKINFREEZER_CASEDRIPDOWN2ADAYSCHED_dy_1,SALES_CASE:7_WALKINFREEZER_CASEDRIPDOWN2ADAYSCHED_dy_1,SALES_CASE:7_WALKINFREEZER_CASEDRIPDOWN2ADAYSCHED_dy_1,SALES_CASE:7_WALKINFREEZER_CASEDRIPDOWN2ADAYSCHED_dy_1,SALES_CASE:7_WALKINFREEZER_CASEDRIPDOWN2ADAYSCHED_dy_1,SALES_CASE:7_WALKINFREEZER_CASEDRIPDOWN2ADAYSCHED_dy_1,SALES_CASE:7_WALKINFREEZER_CASEDRIPDOWN2ADAYSCHED_dy_1,SALES_CASE:7_WALKINFREEZER_CASEDRIPDOWN2ADAYSCHED_dy_1
Schedule:Week:Daily,SALES_CASE:7_WALKINFREEZER_WALKINSTOCKINGSCHED_wk_1,SALES_CASE:7_WALKINFREEZER_WALKINSTOCKINGSCHED_dy_2,SALES_CASE:7_WALKINFREEZER_WALKINSTOCKINGSCHED_dy_2,SALES_CASE:7_WALKINFREEZER_WALKINSTOCKINGSCHED_dy_1,SALES_CASE:7_WALKINFREEZER_WALKINSTOCKINGSCHED_dy_2,SALES_CASE:7_WALKINFREEZER_WALKINSTOCKINGSCHED_dy_2,SALES_CASE:7_WALKINFREEZER_WALKINSTOCKINGSCHED_dy_1,SALES_CASE:7_WALKINFREEZER_WALKINSTOCKINGSCHED_dy_2,SALES_CASE:7_WALKINFREEZER_WALKINSTOCKINGSCHED_dy_2,SALES_CASE:7_WALKINFREEZER_WALKINSTOCKINGSCHED_dy_2,SALES_CASE:7_WALKINFREEZER_WALKINSTOCKINGSCHED_dy_2,SALES_CASE:7_WALKINFREEZER_WALKINSTOCKINGSCHED_dy_2,SALES_CASE:7_WALKINFREEZER_WALKINSTOCKINGSCHED_dy_2
Schedule:Week:Daily,BLDG_SWH_SCH_wk_1,BLDG_SWH_SCH_dy_3,BLDG_SWH_SCH_dy_1,BLDG_SWH_SCH_dy_1,BLDG_SWH_SCH_dy_1,BLDG_SWH_SCH_dy_1,BLDG_SWH_SCH_dy_1,BLDG_SWH_SCH_dy_2,BLDG_SWH_SCH_dy_3,BLDG_SWH_SCH_dy_1,BLDG_SWH_SCH_dy_2,BLDG_SWH_SCH_dy_3,BLDG_SWH_SCH_dy_3
Schedule:Week:Daily,WATER EQUIPMENT LATENT FRACT SCHED_wk_1,WATER EQUIPMENT LATENT FRACT SCHED_dy_1,WATER EQUIPMENT LATENT FRACT SCHED_dy_1,WATER EQUIPMENT LATENT FRACT SCHED_dy_1,WATER EQUIPMENT LATENT FRACT SCHED_dy_1,WATER EQUIPMENT LATENT FRACT SCHED_dy_1,WATER EQUIPMENT LATENT FRACT SCHED_dy_1,WATER EQUIPMENT LATENT FRACT SCHED_dy_1,WATER EQUIPMENT LATENT FRACT SCHED_dy_1,WATER EQUIPMENT LATENT FRACT SCHED_dy_1,WATER EQUIPMENT LATENT FRACT SCHED_dy_1,WATER EQUIPMENT LATENT FRACT SCHED_dy_1,WATER EQUIPMENT LATENT FRACT SCHED_dy_1
Schedule:Week:Daily,WATER EQUIPMENT SENSIBLE FRACT SCHED_wk_1,WATER EQUIPMENT SENSIBLE FRACT SCHED_dy_1,WATER EQUIPMENT SENSIBLE FRACT SCHED_dy_1,WATER EQUIPMENT SENSIBLE FRACT SCHED_dy_1,WATER EQUIPMENT SENSIBLE FRACT SCHED_dy_1,WATER EQUIPMENT SENSIBLE FRACT SCHED_dy_1,WATER EQUIPMENT SENSIBLE FRACT SCHED_dy_1,WATER EQUIPMENT SENSIBLE FRACT SCHED_dy_1,WATER EQUIPMENT SENSIBLE FRACT SCHED_dy_1,WATER EQUIPMENT SENSIBLE FRACT SCHED_dy_1,WATER EQUIPMENT SENSIBLE FRACT SCHED_dy_1,WATER EQUIPMENT SENSIBLE FRACT SCHED_dy_1,WATER EQUIPMENT SENSIBLE FRACT SCHED_dy_1
Schedule:Week:Daily,WATER EQUIPMENT HOT SUPPLY TEMP SCHED_wk_1,WATER EQUIPMENT HOT SUPPLY TEMP SCHED_dy_1,WATER EQUIPMENT HOT SUPPLY TEMP SCHED_dy_1,WATER EQUIPMENT HOT SUPPLY TEMP SCHED_dy_1,WATER EQUIPMENT HOT SUPPLY TEMP SCHED_dy_1,WATER EQUIPMENT HOT SUPPLY TEMP SCHED_dy_1,WATER EQUIPMENT HOT SUPPLY TEMP SCHED_dy_1,WATER EQUIPMENT HOT SUPPLY TEMP SCHED_dy_1,WATER EQUIPMENT HOT SUPPLY TEMP SCHED_dy_1,WATER EQUIPMENT HOT SUPPLY TEMP SCHED_dy_1,WATER EQUIPMENT HOT SUPPLY TEMP SCHED_dy_1,WATER EQUIPMENT HOT SUPPLY TEMP SCHED_dy_1,WATER EQUIPMENT HOT SUPPLY TEMP SCHED_dy_1
Schedule:Week:Daily,WATER EQUIPMENT TEMP SCHED_wk_1,WATER EQUIPMENT TEMP SCHED_dy_1,WATER EQUIPMENT TEMP SCHED_dy_1,WATER EQUIPMENT TEMP SCHED_dy_1,WATER EQUIPMENT TEMP SCHED_dy_1,WATER EQUIPMENT TEMP SCHED_dy_1,WATER EQUIPMENT TEMP SCHED_dy_1,WATER EQUIPMENT TEMP SCHED_dy_1,WATER EQUIPMENT TEMP SCHED_dy_1,WATER EQUIPMENT TEMP SCHED_dy_1,WATER EQUIPMENT TEMP SCHED_dy_1,WATER EQUIPMENT TEMP SCHED_dy_1,WATER EQUIPMENT TEMP SCHED_dy_1
Schedule:Week:Daily,PLANTONSCHED_wk_1,PLANTONSCHED_dy_1,PLANTONSCHED_dy_1,PLANTONSCHED_dy_1,PLANTONSCHED_dy_1,PLANTONSCHED_dy_1,PLANTONSCHED_dy_1,PLANTONSCHED_dy_1,PLANTONSCHED_dy_1,PLANTONSCHED_dy_1,PLANTONSCHED_dy_1,PLANTONSCHED_dy_1,PLANTONSCHED_dy_1
Schedule:Week:Daily,SWHSYS1 WATER HEATER AMBIENT TEMPERATURE SCHEDULE NAME_wk_1,SWHSYS1 WATER HEATER AMBIENT TEMPERATURE SCHEDULE NAME_dy_1,SWHSYS1 WATER HEATER AMBIENT TEMPERATURE SCHEDULE NAME_dy_1,SWHSYS1 WATER HEATER AMBIENT TEMPERATURE SCHEDULE NAME_dy_1,SWHSYS1 WATER HEATER AMBIENT TEMPERATURE SCHEDULE NAME_dy_1,SWHSYS1 WATER HEATER AMBIENT TEMPERATURE SCHEDULE NAME_dy_1,SWHSYS1 WATER HEATER AMBIENT TEMPERATURE SCHEDULE NAME_dy_1,SWHSYS1 WATER HEATER AMBIENT TEMPERATURE SCHEDULE NAME_dy_1,SWHSYS1 WATER HEATER AMBIENT TEMPERATURE SCHEDULE NAME_dy_1,SWHSYS1 WATER HEATER AMBIENT TEMPERATURE SCHEDULE NAME_dy_1,SWHSYS1 WATER HEATER AMBIENT TEMPERATURE SCHEDULE NAME_dy_1,SWHSYS1 WATER HEATER AMBIENT TEMPERATURE SCHEDULE NAME_dy_1,SWHSYS1 WATER HEATER AMBIENT TEMPERATURE SCHEDULE NAME_dy_1
Schedule:Week:Daily,SWHSYS1 WATER HEATER SETPOINT TEMPERATURE SCHEDULE NAME_wk_1,SWHSYS1 WATER HEATER SETPOINT TEMPERATURE SCHEDULE NAME_dy_1,SWHSYS1 WATER HEATER SETPOINT TEMPERATURE SCHEDULE NAME_dy_1,SWHSYS1 WATER HEATER SETPOINT TEMPERATURE SCHEDULE NAME_dy_1,SWHSYS1 WATER HEATER SETPOINT TEMPERATURE SCHEDULE NAME_dy_1,SWHSYS1 WATER HEATER SETPOINT TEMPERATURE SCHEDULE NAME_dy_1,SWHSYS1 WATER HEATER SETPOINT TEMPERATURE SCHEDULE NAME_dy_1,SWHSYS1 WATER HEATER SETPOINT TEMPERATURE SCHEDULE NAME_dy_1,SWHSYS1 WATER HEATER SETPOINT TEMPERATURE SCHEDULE NAME_dy_1,SWHSYS1 WATER HEATER SETPOINT TEMPERATURE SCHEDULE NAME_dy_1,SWHSYS1 WATER HEATER SETPOINT TEMPERATURE SCHEDULE NAME_dy_1,SWHSYS1 WATER HEATER SETPOINT TEMPERATURE SCHEDULE NAME_dy_1,SWHSYS1 WATER HEATER SETPOINT TEMPERATURE SCHEDULE NAME_dy_1
Schedule:Week:Daily,SWHSYS1-LOOP-TEMP-SCHEDULE_wk_1,SWHSYS1-LOOP-TEMP-SCHEDULE_dy_1,SWHSYS1-LOOP-TEMP-SCHEDULE_dy_1,SWHSYS1-LOOP-TEMP-SCHEDULE_dy_1,SWHSYS1-LOOP-TEMP-SCHEDULE_dy_1,SWHSYS1-LOOP-TEMP-SCHEDULE_dy_1,SWHSYS1-LOOP-TEMP-SCHEDULE_dy_1,SWHSYS1-LOOP-TEMP-SCHEDULE_dy_1,SWHSYS1-LOOP-TEMP-SCHEDULE_dy_1,SWHSYS1-LOOP-TEMP-SCHEDULE_dy_1,SWHSYS1-LOOP-TEMP-SCHEDULE_dy_1,SWHSYS1-LOOP-TEMP-SCHEDULE_dy_1,SWHSYS1-LOOP-TEMP-SCHEDULE_dy_1
Schedule,ALWAYS_ON,ON/OFF,Through Dec 31,ALWAYS_ON_wk_1
Schedule,DELI_EXHAUST_SCH,ON/OFF,Through Dec 31,DELI_EXHAUST_SCH_wk_1
Schedule,BLDG_EQUIP_SCH,FRACTION,Through Dec 31,BLDG_EQUIP_SCH_wk_1
Schedule,BLDG_LIGHT_SCH,FRACTION,Through Dec 31,BLDG_LIGHT_SCH_wk_1
Schedule,BLDG_OCC_SCH,FRACTION,Through Dec 31,BLDG_OCC_SCH_wk_1
Schedule,INFIL_HALF_ON_SCH,FRACTION,Through Dec 31,INFIL_HALF_ON_SCH_wk_1
Schedule,CLOTHING_SCH,ANY NUMBER,Through Apr 30,CLOTHING_SCH_wk_1,Through Sep 30,CLOTHING_SCH_wk_2,Through Dec 31,CLOTHING_SCH_wk_3
Schedule,WORK_EFF_SCH,FRACTION,Through Dec 31,WORK_EFF_SCH_wk_1
Schedule,ACTIVITY_SCH,ANY NUMBER,Through Dec 31,ACTIVITY_SCH_wk_1
Schedule,AIR_VELO_SCH,ANY NUMBER,Through Dec 31,AIR_VELO_SCH_wk_1
Schedule,CLGSETP_SCH,TEMPERATURE,Through Dec 31,CLGSETP_SCH_wk_1
Schedule,HTGSETP_SCH,TEMPERATURE,Through Dec 31,HTGSETP_SCH_wk_1
Schedule,HVACOPERATIONSCHD,ON/OFF,Through Dec 31,HVACOPERATIONSCHD_wk_1
Schedule,MINOA_SCHED,FRACTION,Through Dec 31,MINOA_SCHED_wk_1
Schedule,DUAL ZONE CONTROL TYPE SCHED,CONTROL TYPE,Through Dec 31,DUAL ZONE CONTROL TYPE SCHED_wk_1
Schedule,BAKERY_CASE:1_WALKINFREEZER_CASECREDITREDUXSCHED,FRACTION,Through Dec 31,BAKERY_CASE:1_WALKINFREEZER_CASECREDITREDUXSCHED_wk_1
Schedule,BAKERY_CASE:1_WALKINFREEZER_CASEDEFROST2ADAYSCHED,ON/OFF,Through Dec 31,BAKERY_CASE:1_WALKINFREEZER_CASEDEFROST2ADAYSCHED_wk_1
Schedule,BAKERY_CASE:1_WALKINFREEZER_CASEDRIPDOWN2ADAYSCHED,ON/OFF,Through Dec 31,BAKERY_CASE:1_WALKINFREEZER_CASEDRIPDOWN2ADAYSCHED_wk_1
Schedule,BAKERY_CASE:1_WALKINFREEZER_WALKINSTOCKINGSCHED,ANY NUMBER,Through Dec 31,BAKERY_CASE:1_WALKINFREEZER_WALKINSTOCKINGSCHED_wk_1
Schedule,DELI_CASE:1_ MULTIDECKDIARYANDDELICASE_CASECREDITREDUXSCHED,FRACTION,Through Dec 31,DELI_CASE:1_ MULTIDECKDIARYANDDELICASE_CASECREDITREDUXSCHED_wk_1
Schedule,DELI_CASE:1_ MULTIDECKDIARYANDDELICASE_CASEDEFROST2ADAYSCHED,ON/OFF,Through Dec 31,DELI_CASE:1_ MULTIDECKDIARYANDDELICASE_CASEDEFROST2ADAYSCHED_wk_1
Schedule,DELI_CASE:1_ MULTIDECKDIARYANDDELICASE_CASEDRIPDOWN2ADAYSCHED,ON/OFF,Through Dec 31,DELI_CASE:1_ MULTIDECKDIARYANDDELICASE_CASEDRIPDOWN2ADAYSCHED_wk_1
Schedule,DELI_CASE:1_ MULTIDECKDIARYANDDELICASE_CASESTOCKINGSCHED,ANY NUMBER,Through Dec 31,DELI_CASE:1_ MULTIDECKDIARYANDDELICASE_CASESTOCKINGSCHED_wk_1
Schedule,DELI_CASE:2_WALKINFREEZER_CASECREDITREDUXSCHED,FRACTION,Through Dec 31,DELI_CASE:2_WALKINFREEZER_CASECREDITREDUXSCHED_wk_1
Schedule,DELI_CASE:2_WALKINFREEZER_CASEDEFROST2ADAYSCHED,ON/OFF,Through Dec 31,DELI_CASE:2_WALKINFREEZER_CASEDEFROST2ADAYSCHED_wk_1
Schedule,DELI_CASE:2_WALKINFREEZER_CASEDRIPDOWN2ADAYSCHED,ON/OFF,Through Dec 31,DELI_CASE:2_WALKINFREEZER_CASEDRIPDOWN2ADAYSCHED_wk_1
Schedule,DELI_CASE:2_WALKINFREEZER_WALKINSTOCKINGSCHED,ANY NUMBER,Through Dec 31,DELI_CASE:2_WALKINFREEZER_WALKINSTOCKINGSCHED_wk_1
Schedule,PRODUCE_CASE:1_ MULTIDECKDIARYANDDELICASE_CASECREDITREDUXSCHED,FRACTION,Through Dec 31,PRODUCE_CASE:1_ MULTIDECKDIARYANDDELICASE_CASECREDITREDUXSCHED_wk_1
Schedule,PRODUCE_CASE:1_ MULTIDECKDIARYANDDELICASE_CASEDEFROST2ADAYSCHED,ON/OFF,Through Dec 31,PRODUCE_CASE:1_ MULTIDECKDIARYANDDELICASE_CASEDEFROST2ADAYSCHED_wk_1
Schedule,PRODUCE_CASE:1_ MULTIDECKDIARYANDDELICASE_CASEDRIPDOWN2ADAYSCHED,ON/OFF,Through Dec 31,PRODUCE_CASE:1_ MULTIDECKDIARYANDDELICASE_CASEDRIPDOWN2ADAYSCHED_wk_1
Schedule,PRODUCE_CASE:1_ MULTIDECKDIARYANDDELICASE_CASESTOCKINGSCHED,ANY NUMBER,Through Dec 31,PRODUCE_CASE:1_ MULTIDECKDIARYANDDELICASE_CASESTOCKINGSCHED_wk_1
Schedule,SALES_CASE:1_MEATDISPLAYCASE_CASEDEFROST2ADAYSCHED,ON/OFF,Through Dec 31,SALES_CASE:1_MEATDISPLAYCASE_CASEDEFROST2ADAYSCHED_wk_1
Schedule,SALES_CASE:1_MEATDISPLAYCASE_CASEDRIPDOWN2ADAYSCHED,ON/OFF,Through Dec 31,SALES_CASE:1_MEATDISPLAYCASE_CASEDRIPDOWN2ADAYSCHED_wk_1
Schedule,SALES_CASE:1_MEATDISPLAYCASE_CASESTOCKINGSCHED,ANY NUMBER,Through Dec 31,SALES_CASE:1_MEATDISPLAYCASE_CASESTOCKINGSCHED_wk_1
Schedule,SALES_CASE:2_ MULTIDECKDIARYANDDELICASE_CASECREDITREDUXSCHED,FRACTION,Through Dec 31,SALES_CASE:2_ MULTIDECKDIARYANDDELICASE_CASECREDITREDUXSCHED_wk_1
Schedule,SALES_CASE:2_ MULTIDECKDIARYANDDELICASE_CASEDEFROST2ADAYSCHED,ON/OFF,Through Dec 31,SALES_CASE:2_ MULTIDECKDIARYANDDELICASE_CASEDEFROST2ADAYSCHED_wk_1
Schedule,SALES_CASE:2_ MULTIDECKDIARYANDDELICASE_CASEDRIPDOWN2ADAYSCHED,ON/OFF,Through Dec 31,SALES_CASE:2_ MULTIDECKDIARYANDDELICASE_CASEDRIPDOWN2ADAYSCHED_wk_1
Schedule,SALES_CASE:2_ MULTIDECKDIARYANDDELICASE_CASESTOCKINGSCHED,ANY NUMBER,Through Dec 31,SALES_CASE:2_ MULTIDECKDIARYANDDELICASE_CASESTOCKINGSCHED_wk_1
Schedule,SALES_CASE:3_GLASSDOORFROZENFOOD_CASECREDITREDUXSCHED,FRACTION,Through Dec 31,SALES_CASE:3_GLASSDOORFROZENFOOD_CASECREDITREDUXSCHED_wk_1
Schedule,SALES_CASE:3_GLASSDOORFROZENFOOD_CASEDEFROST2ADAYSCHED,ON/OFF,Through Dec 31,SALES_CASE:3_GLASSDOORFROZENFOOD_CASEDEFROST2ADAYSCHED_wk_1
Schedule,SALES_CASE:3_GLASSDOORFROZENFOOD_CASEDRIPDOWN2ADAYSCHED,ON/OFF,Through Dec 31,SALES_CASE:3_GLASSDOORFROZENFOOD_CASEDRIPDOWN2ADAYSCHED_wk_1
Schedule,SALES_CASE:3_GLASSDOORFROZENFOOD_CASESTOCKINGSCHED,ANY NUMBER,Through Dec 31,SALES_CASE:3_GLASSDOORFROZENFOOD_CASESTOCKINGSCHED_wk_1
Schedule,SALES_CASE:4_OPENWELLICECREAMDISPLAYCASE_CASECREDITREDUXSCHED,FRACTION,Through Dec 31,SALES_CASE:4_OPENWELLICECREAMDISPLAYCASE_CASECREDITREDUXSCHED_wk_1
Schedule,SALES_CASE:4_OPENWELLICECREAMDISPLAYCASE_CASEDEFROST2ADAYSCHED,ON/OFF,Through Dec 31,SALES_CASE:4_OPENWELLICECREAMDISPLAYCASE_CASEDEFROST2ADAYSCHED_wk_1
Schedule,SALES_CASE:4_OPENWELLICECREAMDISPLAYCASE_CASEDRIPDOWN2ADAYSCHED,ON/OFF,Through Dec 31,SALES_CASE:4_OPENWELLICECREAMDISPLAYCASE_CASEDRIPDOWN2ADAYSCHED_wk_1
Schedule,SALES_CASE:4_OPENWELLICECREAMDISPLAYCASE_CASESTOCKINGSCHED,ANY NUMBER,Through Dec 31,SALES_CASE:4_OPENWELLICECREAMDISPLAYCASE_CASESTOCKINGSCHED_wk_1
Schedule,SALES_CASE:5_WALKINFREEZER_CASECREDITREDUXSCHED,FRACTION,Through Dec 31,SALES_CASE:5_WALKINFREEZER_CASECREDITREDUXSCHED_wk_1
Schedule,SALES_CASE:5_WALKINFREEZER_CASEDEFROST2ADAYSCHED,ON/OFF,Through Dec 31,SALES_CASE:5_WALKINFREEZER_CASEDEFROST2ADAYSCHED_wk_1
Schedule,SALES_CASE:5_WALKINFREEZER_CASEDRIPDOWN2ADAYSCHED,ON/OFF,Through Dec 31,SALES_CASE:5_WALKINFREEZER_CASEDRIPDOWN2ADAYSCHED_wk_1
Schedule,SALES_CASE:5_WALKINFREEZER_WALKINSTOCKINGSCHED,ANY NUMBER,Through Dec 31,SALES_CASE:5_WALKINFREEZER_WALKINSTOCKINGSCHED_wk_1
Schedule,SALES_CASE:6_WALKINFREEZER_CASECREDITREDUXSCHED,FRACTION,Through Dec 31,SALES_CASE:6_WALKINFREEZER_CASECREDITREDUXSCHED_wk_1
Schedule,SALES_CASE:6_WALKINFREEZER_CASEDEFROST2ADAYSCHED,ON/OFF,Through Dec 31,SALES_CASE:6_WALKINFREEZER_CASEDEFROST2ADAYSCHED_wk_1
Schedule,SALES_CASE:6_WALKINFREEZER_CASEDRIPDOWN2ADAYSCHED,ON/OFF,Through Dec 31,SALES_CASE:6_WALKINFREEZER_CASEDRIPDOWN2ADAYSCHED_wk_1
Schedule,SALES_CASE:6_WALKINFREEZER_WALKINSTOCKINGSCHED,ANY NUMBER,Through Dec 31,SALES_CASE:6_WALKINFREEZER_WALKINSTOCKINGSCHED_wk_1
Schedule,SALES_CASE:7_WALKINFREEZER_CASECREDITREDUXSCHED,FRACTION,Through Dec 31,SALES_CASE:7_WALKINFREEZER_CASECREDITREDUXSCHED_wk_1
Schedule,SALES_CASE:7_WALKINFREEZER_CASEDEFROST2ADAYSCHED,ON/OFF,Through Dec 31,SALES_CASE:7_WALKINFREEZER_CASEDEFROST2ADAYSCHED_wk_1
Schedule,SALES_CASE:7_WALKINFREEZER_CASEDRIPDOWN2ADAYSCHED,ON/OFF,Through Dec 31,SALES_CASE:7_WALKINFREEZER_CASEDRIPDOWN2ADAYSCHED_wk_1
Schedule,SALES_CASE:7_WALKINFREEZER_WALKINSTOCKINGSCHED,ANY NUMBER,Through Dec 31,SALES_CASE:7_WALKINFREEZER_WALKINSTOCKINGSCHED_wk_1
Schedule,BLDG_SWH_SCH,FRACTION,Through Dec 31,BLDG_SWH_SCH_wk_1
Schedule,WATER EQUIPMENT LATENT FRACT SCHED,FRACTION,Through Dec 31,WATER EQUIPMENT LATENT FRACT SCHED_wk_1
Schedule,WATER EQUIPMENT SENSIBLE FRACT SCHED,FRACTION,Through Dec 31,WATER EQUIPMENT SENSIBLE FRACT SCHED_wk_1
Schedule,WATER EQUIPMENT HOT SUPPLY TEMP SCHED,TEMPERATURE,Through Dec 31,WATER EQUIPMENT HOT SUPPLY TEMP SCHED_wk_1
Schedule,WATER EQUIPMENT TEMP SCHED,TEMPERATURE,Through Dec 31,WATER EQUIPMENT TEMP SCHED_wk_1
Schedule,PLANTONSCHED,ON/OFF,Through Dec 31,PLANTONSCHED_wk_1
Schedule,SWHSYS1 WATER HEATER AMBIENT TEMPERATURE SCHEDULE NAME,TEMPERATURE,Through Dec 31,SWHSYS1 WATER HEATER AMBIENT TEMPERATURE SCHEDULE NAME_wk_1
Schedule,SWHSYS1 WATER HEATER SETPOINT TEMPERATURE SCHEDULE NAME,TEMPERATURE,Through Dec 31,SWHSYS1 WATER HEATER SETPOINT TEMPERATURE SCHEDULE NAME_wk_1
Schedule,SWHSYS1-LOOP-TEMP-SCHEDULE,TEMPERATURE,Through Dec 31,SWHSYS1-LOOP-TEMP-SCHEDULE_wk_1
! <Building Information>, Building Name,North Axis {deg},Terrain,  Loads Convergence Tolerance Value,Temperature Convergence Tolerance Value,  Solar Distribution,Maximum Number of Warmup Days,Minimum Number of Warmup Days
 Building Information,Ref Bldg SuperMarket New2004_v1.3_5.0,0.000,City,4.00000E-002,0.20000,FullInteriorAndExterior,25,6
! <Inside Convection Algorithm>, Algorithm {Simple | TARP | CeilingDiffuser | AdaptiveConvectionAlgorithm}
Inside Convection Algorithm,TARP
! <Outside Convection Algorithm>, Algorithm {SimpleCombined | TARP | MoWitt | DOE-2 | AdaptiveConvectionAlgorithm}
Outside Convection Algorithm,DOE-2
! <Sky Radiance Distribution>, Value {Anisotropic}
Sky Radiance Distribution,Anisotropic
! <Zone Air Solution Algorithm>, Value {ThirdOrderBackwardDifference | AnalyticalSolution | EulerMethod}
 Zone Air Solution Algorithm, AnalyticalSolution
! <Zone Air Carbon Dioxide Balance Simulation>, Simulation {Yes/No}, Carbon Dioxide Concentration
 Zone Air Carbon Dioxide Balance Simulation, No,N/A
! <Zone Air Generic Contaminant Balance Simulation>, Simulation {Yes/No}, Generic Contaminant Concentration
 Zone Air Generic Contaminant Balance Simulation, No,N/A
! <Zone Air Mass Flow Balance Simulation>, Enforce Mass Balance, Adjust Zone Mixing, Adjust Zone Infiltration {AddInfiltration | AdjustInfiltration | None}, Infiltration Zones {MixingSourceZonesOnly | AllZones}
 Zone Air Mass Flow Balance Simulation, No,N/A,N/A,N/A
! <HVACSystemRootFindingAlgorithm>, Value {RegulaFalsi | Bisection | BisectionThenRegulaFalsi | RegulaFalsiThenBisection}
 HVACSystemRootFindingAlgorithm, RegulaFalsi
! <Environment:Site Atmospheric Variation>,Wind Speed Profile Exponent {},Wind Speed Profile Boundary Layer Thickness {m},Air Temperature Gradient Coefficient {K/m}
Environment:Site Atmospheric Variation,0.330,460.000,6.500000E-003
! <Surface Geometry>,Starting Corner,Vertex Input Direction,Coordinate System,Daylight Reference Point Coordinate System,Rectangular (Simple) Surface Coordinate System
 Surface Geometry,UpperLeftCorner,Counterclockwise,RelativeCoordinateSystem,RelativeCoordinateSystem,RelativeToZoneOrigin
! <Surface Heat Transfer Algorithm>, Value {CTF - ConductionTransferFunction | EMPD - MoisturePenetrationDepthConductionTransferFunction | CondFD - ConductionFiniteDifference | HAMT - CombinedHeatAndMoistureFiniteElement} - Description,Inside Surface Max Temperature Limit{C}, Surface Convection Coefficient Lower Limit {W/m2-K}, Surface Convection Coefficient Upper Limit {W/m2-K}
Surface Heat Transfer Algorithm, CTF - ConductionTransferFunction,200,0.10,1000.0
! <Shading Summary>, Number of Fixed Detached Shades, Number of Building Detached Shades, Number of Attached Shades
 Shading Summary,0,0,0
! <Zone Summary>, Number of Zones, Number of Zone Surfaces, Number of SubSurfaces
 Zone Summary,6,45,1
! <Zone Information>,Zone Name,North Axis {deg},Origin X-Coordinate {m},Origin Y-Coordinate {m},Origin Z-Coordinate {m},Centroid X-Coordinate {m},Centroid Y-Coordinate {m},Centroid Z-Coordinate {m},Type,Zone Multiplier,Zone List Multiplier,Minimum X {m},Maximum X {m},Minimum Y {m},Maximum Y {m},Minimum Z {m},Maximum Z {m},Ceiling Height {m},Volume {m3},Zone Inside Convection Algorithm {Simple-Detailed-CeilingDiffuser-TrombeWall},Zone Outside Convection Algorithm {Simple-Detailed-Tarp-MoWitt-DOE-2-BLAST}, Floor Area {m2},Exterior Gross Wall Area {m2},Exterior Net Wall Area {m2},Exterior Window Area {m2}, Number of Surfaces, Number of SubSurfaces, Number of Shading SubSurfaces,  Part of Total Building Area
 Zone Information, BAKERY,0.0,0.00,0.00,0.00,31.84,-19.68,3.05,1,1,1,26.89,36.79,-30.24,-9.13,0.00,6.10,6.10,1274.31,TARP,DOE-2,209.04,189.08,189.08,0.00,6,0,0,Yes
 Zone Information, DELI,0.0,0.00,0.00,0.00,31.84,2.23,3.05,1,1,1,26.89,36.79,-9.13,13.58,0.00,6.10,6.10,1369.88,TARP,DOE-2,224.72,138.39,138.39,0.00,6,0,0,Yes
 Zone Information, DRYSTORAGE,0.0,0.00,0.00,0.00,-7.76,18.06,3.05,1,1,1,-42.40,26.89,13.58,22.55,0.00,6.10,6.10,3791.04,TARP,DOE-2,621.89,477.11,477.11,0.00,7,0,0,Yes
 Zone Information, OFFICE,0.0,0.00,0.00,0.00,31.84,18.06,3.05,1,1,1,26.89,36.79,13.58,22.55,0.00,6.10,6.10,541.58,TARP,DOE-2,88.84,115.05,115.05,0.00,6,0,0,Yes
 Zone Information, PRODUCE,0.0,0.00,0.00,0.00,-34.29,-8.33,3.05,1,1,1,-42.40,-26.17,-30.24,13.58,0.00,6.10,6.10,4336.48,TARP,DOE-2,711.36,366.09,366.09,0.00,6,0,0,Yes
 Zone Information, SALES,0.0,0.00,0.00,0.00,0.36,-8.33,3.05,1,1,1,-26.17,26.89,-30.24,13.58,0.00,6.10,6.10,14172.83,TARP,DOE-2,2324.94,323.44,148.73,174.70,7,1,0,Yes
[...]
! <System Sizing Information>, System Name, Load Type, Peak Load Kind, User Design Capacity, Calc Des Air Flow Rate [m3/s], User Des Air Flow Rate [m3/s], Design Day Name, Date/Time of Peak
 System Sizing Information, PSZ-AC:1, Cooling, Sensible, 3625.03, 0.28253, 0.28253, CHICAGO ANN CLG .4% CONDNS WB=>MDB, 7/21 05:00:00
 System Sizing Information, PSZ-AC:1, Heating, Sensible, 15579.90, 0.58283, 0.58283, CHICAGO ANN HTG 99.6% CONDNS DB, 1/21 07:00:00
 System Sizing Information, PSZ-AC:2, Cooling, Sensible, 18964.94, 1.20708, 1.20708, CHICAGO ANN CLG .4% CONDNS WB=>MDB, 7/21 05:00:00
 System Sizing Information, PSZ-AC:2, Heating, Sensible, 92311.31, 3.05961, 3.05961, CHICAGO ANN HTG 99.6% CONDNS DB, 1/21 07:00:00
 System Sizing Information, PSZ-AC:3, Cooling, Sensible, 22280.54, 2.17665, 2.17665, CHICAGO ANN CLG .4% CONDNS WB=>MDB, 7/21 05:00:00
 System Sizing Information, PSZ-AC:3, Heating, Sensible, 77479.65, 1.08205, 1.08205, CHICAGO ANN HTG 99.6% CONDNS DB, 1/21 07:00:00
 System Sizing Information, PSZ-AC:4, Cooling, Sensible, 45838.83, 3.48741, 3.48741, CHICAGO ANN CLG .4% CONDNS WB=>MDB, 7/21 05:00:00
 System Sizing Information, PSZ-AC:4, Heating, Sensible, 391095.56, 9.71037, 9.71037, CHICAGO ANN HTG 99.6% CONDNS DB, 1/21 07:00:00
 System Sizing Information, PSZ-AC:5, Cooling, Sensible, 11533.36, 1.11297, 1.11297, CHICAGO ANN CLG .4% CONDNS WB=>MDB, 7/21 05:00:00
 System Sizing Information, PSZ-AC:5, Heating, Sensible, 124979.30, 3.20501, 3.20501, CHICAGO ANN HTG 99.6% CONDNS DB, 1/21 07:00:00
 System Sizing Information, PSZ-AC:6, Cooling, Sensible, 27930.00, 2.14034, 2.14034, CHICAGO ANN CLG .4% CONDNS WB=>MDB, 7/21 05:00:00
 System Sizing Information, PSZ-AC:6, Heating, Sensible, 40854.43, 1.12353, 1.12353, CHICAGO ANN HTG 99.6% CONDNS DB, 1/21 07:00:00
! <Component Sizing Information>, Component Type, Component Name, Input Field Description, Value
 Component Sizing Information, AirTerminal:SingleDuct:Uncontrolled, BAKERY DIRECT AIR, Design Size Maximum Air Flow Rate [m3/s], 2.14034
 Component Sizing Information, AirTerminal:SingleDuct:Uncontrolled, DELI DIRECT AIR, Design Size Maximum Air Flow Rate [m3/s], 2.17665
 Component Sizing Information, AirTerminal:SingleDuct:Uncontrolled, DRYSTORAGE DIRECT AIR, Design Size Maximum Air Flow Rate [m3/s], 3.05961
 Component Sizing Information, AirTerminal:SingleDuct:Uncontrolled, OFFICE DIRECT AIR, Design Size Maximum Air Flow Rate [m3/s], 0.58283
 Component Sizing Information, AirTerminal:SingleDuct:Uncontrolled, PRODUCE DIRECT AIR, Design Size Maximum Air Flow Rate [m3/s], 3.20501
 Component Sizing Information, AirTerminal:SingleDuct:Uncontrolled, SALES DIRECT AIR, Design Size Maximum Air Flow Rate [m3/s], 9.71037
 Component Sizing Information, AirLoopHVAC, PSZ-AC:1, Sum of Air Terminal Maximum Heating Flow Rates [m3/s], 0.58283
 Component Sizing Information, AirLoopHVAC, PSZ-AC:1, Sum of Air Terminal Minimum Heating Flow Rates [m3/s], 0.58283
 Component Sizing Information, AirLoopHVAC, PSZ-AC:1, Sum of Air Terminal Maximum Flow Rates [m3/s], 0.58283
 Component Sizing Information, AirLoopHVAC, PSZ-AC:1, Adjusted Heating Design Air Flow Rate [m3/s], 0.58283
 Component Sizing Information, AirLoopHVAC, PSZ-AC:1, Adjusted Cooling Design Air Flow Rate [m3/s], 0.58283
 Component Sizing Information, AirLoopHVAC, PSZ-AC:1, Adjusted Main Design Air Flow Rate [m3/s], 0.58283
 Component Sizing Information, AirLoopHVAC, PSZ-AC:1, User Heating Air Flow Ratio [], 1.00000
 Component Sizing Information, AirLoopHVAC, PSZ-AC:1, Calculated Heating Air Flow Ratio [], 1.00000
 Component Sizing Information, AirLoopHVAC, PSZ-AC:2, Sum of Air Terminal Maximum Heating Flow Rates [m3/s], 3.05961
 Component Sizing Information, AirLoopHVAC, PSZ-AC:2, Sum of Air Terminal Minimum Heating Flow Rates [m3/s], 3.05961
 Component Sizing Information, AirLoopHVAC, PSZ-AC:2, Sum of Air Terminal Maximum Flow Rates [m3/s], 3.05961
 Component Sizing Information, AirLoopHVAC, PSZ-AC:2, Adjusted Heating Design Air Flow Rate [m3/s], 3.05961
 Component Sizing Information, AirLoopHVAC, PSZ-AC:2, Adjusted Cooling Design Air Flow Rate [m3/s], 3.05961
 Component Sizing Information, AirLoopHVAC, PSZ-AC:2, Adjusted Main Design Air Flow Rate [m3/s], 3.05961
 Component Sizing Information, AirLoopHVAC, PSZ-AC:2, User Heating Air Flow Ratio [], 1.00000
 Component Sizing Information, AirLoopHVAC, PSZ-AC:2, Calculated Heating Air Flow Ratio [], 1.00000
 Component Sizing Information, AirLoopHVAC, PSZ-AC:3, Sum of Air Terminal Maximum Heating Flow Rates [m3/s], 2.17665
 Component Sizing Information, AirLoopHVAC, PSZ-AC:3, Sum of Air Terminal Minimum Heating Flow Rates [m3/s], 2.17665
 Component Sizing Information, AirLoopHVAC, PSZ-AC:3, Sum of Air Terminal Maximum Flow Rates [m3/s], 2.17665
 Component Sizing Information, AirLoopHVAC, PSZ-AC:3, Adjusted Heating Design Air Flow Rate [m3/s], 2.17665
 Component Sizing Information, AirLoopHVAC, PSZ-AC:3, Adjusted Cooling Design Air Flow Rate [m3/s], 2.17665
 Component Sizing Information, AirLoopHVAC, PSZ-AC:3, Adjusted Main Design Air Flow Rate [m3/s], 2.17665
 Component Sizing Information, AirLoopHVAC, PSZ-AC:3, User Heating Air Flow Ratio [], 1.00000
 Component Sizing Information, AirLoopHVAC, PSZ-AC:3, Calculated Heating Air Flow Ratio [], 1.00000
 Component Sizing Information, AirLoopHVAC, PSZ-AC:4, Sum of Air Terminal Maximum Heating Flow Rates [m3/s], 9.71037
 Component Sizing Information, AirLoopHVAC, PSZ-AC:4, Sum of Air Terminal Minimum Heating Flow Rates [m3/s], 9.71037
 Component Sizing Information, AirLoopHVAC, PSZ-AC:4, Sum of Air Terminal Maximum Flow Rates [m3/s], 9.71037
 Component Sizing Information, AirLoopHVAC, PSZ-AC:4, Adjusted Heating Design Air Flow Rate [m3/s], 9.71037
 Component Sizing Information, AirLoopHVAC, PSZ-AC:4, Adjusted Cooling Design Air Flow Rate [m3/s], 9.71037
 Component Sizing Information, AirLoopHVAC, PSZ-AC:4, Adjusted Main Design Air Flow Rate [m3/s], 9.71037
 Component Sizing Information, AirLoopHVAC, PSZ-AC:4, User Heating Air Flow Ratio [], 1.00000
 Component Sizing Information, AirLoopHVAC, PSZ-AC:4, Calculated Heating Air Flow Ratio [], 1.00000
 Component Sizing Information, AirLoopHVAC, PSZ-AC:5, Sum of Air Terminal Maximum Heating Flow Rates [m3/s], 3.20501
 Component Sizing Information, AirLoopHVAC, PSZ-AC:5, Sum of Air Terminal Minimum Heating Flow Rates [m3/s], 3.20501
 Component Sizing Information, AirLoopHVAC, PSZ-AC:5, Sum of Air Terminal Maximum Flow Rates [m3/s], 3.20501
 Component Sizing Information, AirLoopHVAC, PSZ-AC:5, Adjusted Heating Design Air Flow Rate [m3/s], 3.20501
 Component Sizing Information, AirLoopHVAC, PSZ-AC:5, Adjusted Cooling Design Air Flow Rate [m3/s], 3.20501
 Component Sizing Information, AirLoopHVAC, PSZ-AC:5, Adjusted Main Design Air Flow Rate [m3/s], 3.20501
 Component Sizing Information, AirLoopHVAC, PSZ-AC:5, User Heating Air Flow Ratio [], 1.00000
 Component Sizing Information, AirLoopHVAC, PSZ-AC:5, Calculated Heating Air Flow Ratio [], 1.00000
 Component Sizing Information, AirLoopHVAC, PSZ-AC:6, Sum of Air Terminal Maximum Heating Flow Rates [m3/s], 2.14034
 Component Sizing Information, AirLoopHVAC, PSZ-AC:6, Sum of Air Terminal Minimum Heating Flow Rates [m3/s], 2.14034
 Component Sizing Information, AirLoopHVAC, PSZ-AC:6, Sum of Air Terminal Maximum Flow Rates [m3/s], 2.14034
 Component Sizing Information, AirLoopHVAC, PSZ-AC:6, Adjusted Heating Design Air Flow Rate [m3/s], 2.14034
 Component Sizing Information, AirLoopHVAC, PSZ-AC:6, Adjusted Cooling Design Air Flow Rate [m3/s], 2.14034
 Component Sizing Information, AirLoopHVAC, PSZ-AC:6, Adjusted Main Design Air Flow Rate [m3/s], 2.14034
 Component Sizing Information, AirLoopHVAC, PSZ-AC:6, User Heating Air Flow Ratio [], 1.00000
 Component Sizing Information, AirLoopHVAC, PSZ-AC:6, Calculated Heating Air Flow Ratio [], 1.00000
 Component Sizing Information, AirLoopHVAC, PSZ-AC:1, Design Supply Air Flow Rate [m3/s], 0.58283
 Component Sizing Information, AirLoopHVAC, PSZ-AC:2, Design Supply Air Flow Rate [m3/s], 3.05961
 Component Sizing Information, AirLoopHVAC, PSZ-AC:3, Design Supply Air Flow Rate [m3/s], 2.17665
 Component Sizing Information, AirLoopHVAC, PSZ-AC:4, Design Supply Air Flow Rate [m3/s], 9.71037
 Component Sizing Information, AirLoopHVAC, PSZ-AC:5, Design Supply Air Flow Rate [m3/s], 3.20501
 Component Sizing Information, AirLoopHVAC, PSZ-AC:6, Design Supply Air Flow Rate [m3/s], 2.14034
 Component Sizing Information, Controller:OutdoorAir, PSZ-AC:1_OA_CONTROLLER, Maximum Outdoor Air Flow Rate [m3/s], 0.58283
 Component Sizing Information, Controller:OutdoorAir, PSZ-AC:1_OA_CONTROLLER, Minimum Outdoor Air Flow Rate [m3/s], 4.78158E-002
 Component Sizing Information, Coil:Cooling:DX:SingleSpeed, PSZ-AC:1_COOLC DXCOIL, Design Size Rated Air Flow Rate [m3/s], 0.58283
 Component Sizing Information, Coil:Cooling:DX:SingleSpeed, PSZ-AC:1_COOLC DXCOIL, Design Size Gross Rated Total Cooling Capacity [W], 13533.29155
 Component Sizing Information, Coil:Cooling:DX:SingleSpeed, PSZ-AC:1_COOLC DXCOIL, Design Size Gross Rated Sensible Heat Ratio, 0.71910
! <DX Cooling Coil Standard Rating Information>, Component Type, Component Name, Standard Rating (Net) Cooling Capacity {W}, Standard Rated Net COP {W/W}, EER {Btu/W-h}, SEER {Btu/W-h}, IEER {Btu/W-h}
 DX Cooling Coil Standard Rating Information, Coil:Cooling:DX:SingleSpeed, PSZ-AC:1_COOLC DXCOIL, 13081.2, 3.16, 10.78, 12.40, 11.97
 Component Sizing Information, Coil:Heating:Fuel, PSZ-AC:1_HEATC, Design Size Nominal Capacity [W], 15579.90486
 Component Sizing Information, Fan:ConstantVolume, PSZ-AC:1_FAN, Design Size Maximum Flow Rate [m3/s], 0.58283
 Component Sizing Information, Controller:OutdoorAir, PSZ-AC:2_OA_CONTROLLER, Maximum Outdoor Air Flow Rate [m3/s], 3.05961
 Component Sizing Information, Controller:OutdoorAir, PSZ-AC:2_OA_CONTROLLER, Minimum Outdoor Air Flow Rate [m3/s], 0.46642
 Component Sizing Information, Coil:Cooling:DX:TwoSpeed, PSZ-AC:2_COOLC DXCOIL, Design Size High Speed Rated Air Flow Rate [m3/s], 3.05961
 Component Sizing Information, Coil:Cooling:DX:TwoSpeed, PSZ-AC:2_COOLC DXCOIL, Design Size High Speed Gross Rated Total Cooling Capacity [W], 75977.34468
 Component Sizing Information, Coil:Cooling:DX:TwoSpeed, PSZ-AC:2_COOLC DXCOIL, Design Size High Speed Rated Sensible Heat Ratio, 0.69808
 Component Sizing Information, Coil:Cooling:DX:TwoSpeed, PSZ-AC:2_COOLC DXCOIL, Design Size Low Speed Rated Air Flow Rate [m3/s], 1.01977
 Component Sizing Information, Coil:Cooling:DX:TwoSpeed, PSZ-AC:2_COOLC DXCOIL, Design Size Low Speed Gross Rated Total Cooling Capacity [W], 25323.24898
 Component Sizing Information, Coil:Cooling:DX:TwoSpeed, PSZ-AC:2_COOLC DXCOIL, Design Size Low Speed Gross Rated Sensible Heat Ratio, 0.69808
 Component Sizing Information, Coil:Heating:Fuel, PSZ-AC:2_HEATC, Design Size Nominal Capacity [W], 92311.31240
 Component Sizing Information, Fan:ConstantVolume, PSZ-AC:2_FAN, Design Size Maximum Flow Rate [m3/s], 3.05961
 Component Sizing Information, Controller:OutdoorAir, PSZ-AC:3_OA_CONTROLLER, Maximum Outdoor Air Flow Rate [m3/s], 2.17665
 Component Sizing Information, Controller:OutdoorAir, PSZ-AC:3_OA_CONTROLLER, Minimum Outdoor Air Flow Rate [m3/s], 0.33708
 Component Sizing Information, Coil:Cooling:DX:TwoSpeed, PSZ-AC:3_COOLC DXCOIL, Design Size High Speed Rated Air Flow Rate [m3/s], 2.17665
 Component Sizing Information, Coil:Cooling:DX:TwoSpeed, PSZ-AC:3_COOLC DXCOIL, Design Size High Speed Gross Rated Total Cooling Capacity [W], 54051.28617
 Component Sizing Information, Coil:Cooling:DX:TwoSpeed, PSZ-AC:3_COOLC DXCOIL, Design Size High Speed Rated Sensible Heat Ratio, 0.69808
 Component Sizing Information, Coil:Cooling:DX:TwoSpeed, PSZ-AC:3_COOLC DXCOIL, Design Size Low Speed Rated Air Flow Rate [m3/s], 0.72548
 Component Sizing Information, Coil:Cooling:DX:TwoSpeed, PSZ-AC:3_COOLC DXCOIL, Design Size Low Speed Gross Rated Total Cooling Capacity [W], 18015.29368
 Component Sizing Information, Coil:Cooling:DX:TwoSpeed, PSZ-AC:3_COOLC DXCOIL, Design Size Low Speed Gross Rated Sensible Heat Ratio, 0.69808
 Component Sizing Information, Coil:Heating:Fuel, PSZ-AC:3_HEATC, Design Size Nominal Capacity [W], 155858.31145
 Component Sizing Information, Fan:ConstantVolume, PSZ-AC:3_FAN, Design Size Maximum Flow Rate [m3/s], 2.17665
 Component Sizing Information, Controller:OutdoorAir, PSZ-AC:4_OA_CONTROLLER, Maximum Outdoor Air Flow Rate [m3/s], 9.71037
 Component Sizing Information, Controller:OutdoorAir, PSZ-AC:4_OA_CONTROLLER, Minimum Outdoor Air Flow Rate [m3/s], 3.48741
 Component Sizing Information, Coil:Cooling:DX:TwoSpeed, PSZ-AC:4_COOLC DXCOIL, Design Size High Speed Rated Air Flow Rate [m3/s], 9.71037
 Component Sizing Information, Coil:Cooling:DX:TwoSpeed, PSZ-AC:4_COOLC DXCOIL, Design Size High Speed Gross Rated Total Cooling Capacity [W], 241131.56145
 Component Sizing Information, Coil:Cooling:DX:TwoSpeed, PSZ-AC:4_COOLC DXCOIL, Design Size High Speed Rated Sensible Heat Ratio, 0.69808
 Component Sizing Information, Coil:Cooling:DX:TwoSpeed, PSZ-AC:4_COOLC DXCOIL, Design Size Low Speed Rated Air Flow Rate [m3/s], 3.23647
 Component Sizing Information, Coil:Cooling:DX:TwoSpeed, PSZ-AC:4_COOLC DXCOIL, Design Size Low Speed Gross Rated Total Cooling Capacity [W], 80369.14943
 Component Sizing Information, Coil:Cooling:DX:TwoSpeed, PSZ-AC:4_COOLC DXCOIL, Design Size Low Speed Gross Rated Sensible Heat Ratio, 0.69808
 Component Sizing Information, Coil:Heating:Fuel, PSZ-AC:4_HEATC, Design Size Nominal Capacity [W], 391095.55795
 Component Sizing Information, Fan:ConstantVolume, PSZ-AC:4_FAN, Design Size Maximum Flow Rate [m3/s], 9.71037
 Component Sizing Information, Controller:OutdoorAir, PSZ-AC:5_OA_CONTROLLER, Maximum Outdoor Air Flow Rate [m3/s], 3.20501
 Component Sizing Information, Controller:OutdoorAir, PSZ-AC:5_OA_CONTROLLER, Minimum Outdoor Air Flow Rate [m3/s], 1.06705
 Component Sizing Information, Coil:Cooling:DX:TwoSpeed, PSZ-AC:5_COOLC DXCOIL, Design Size High Speed Rated Air Flow Rate [m3/s], 3.20501
 Component Sizing Information, Coil:Cooling:DX:TwoSpeed, PSZ-AC:5_COOLC DXCOIL, Design Size High Speed Gross Rated Total Cooling Capacity [W], 79587.98195
 Component Sizing Information, Coil:Cooling:DX:TwoSpeed, PSZ-AC:5_COOLC DXCOIL, Design Size High Speed Rated Sensible Heat Ratio, 0.69808
 Component Sizing Information, Coil:Cooling:DX:TwoSpeed, PSZ-AC:5_COOLC DXCOIL, Design Size Low Speed Rated Air Flow Rate [m3/s], 1.06823
 Component Sizing Information, Coil:Cooling:DX:TwoSpeed, PSZ-AC:5_COOLC DXCOIL, Design Size Low Speed Gross Rated Total Cooling Capacity [W], 26526.67438
 Component Sizing Information, Coil:Cooling:DX:TwoSpeed, PSZ-AC:5_COOLC DXCOIL, Design Size Low Speed Gross Rated Sensible Heat Ratio, 0.69808
 Component Sizing Information, Coil:Heating:Fuel, PSZ-AC:5_HEATC, Design Size Nominal Capacity [W], 124979.30086
 Component Sizing Information, Fan:ConstantVolume, PSZ-AC:5_FAN, Design Size Maximum Flow Rate [m3/s], 3.20501
 Component Sizing Information, Controller:OutdoorAir, PSZ-AC:6_OA_CONTROLLER, Maximum Outdoor Air Flow Rate [m3/s], 2.14034
 Component Sizing Information, Controller:OutdoorAir, PSZ-AC:6_OA_CONTROLLER, Minimum Outdoor Air Flow Rate [m3/s], 0.31356
 Component Sizing Information, Coil:Cooling:DX:TwoSpeed, PSZ-AC:6_COOLC DXCOIL, Design Size High Speed Rated Air Flow Rate [m3/s], 2.14034
 Component Sizing Information, Coil:Cooling:DX:TwoSpeed, PSZ-AC:6_COOLC DXCOIL, Design Size High Speed Gross Rated Total Cooling Capacity [W], 38212.23702
 Component Sizing Information, Coil:Cooling:DX:TwoSpeed, PSZ-AC:6_COOLC DXCOIL, Design Size High Speed Rated Sensible Heat Ratio, 0.80089
 Component Sizing Information, Coil:Cooling:DX:TwoSpeed, PSZ-AC:6_COOLC DXCOIL, Design Size Low Speed Rated Air Flow Rate [m3/s], 0.71338
 Component Sizing Information, Coil:Cooling:DX:TwoSpeed, PSZ-AC:6_COOLC DXCOIL, Design Size Low Speed Gross Rated Total Cooling Capacity [W], 12736.13860
 Component Sizing Information, Coil:Cooling:DX:TwoSpeed, PSZ-AC:6_COOLC DXCOIL, Design Size Low Speed Gross Rated Sensible Heat Ratio, 0.80089
 Component Sizing Information, Coil:Heating:Fuel, PSZ-AC:6_HEATC, Design Size Nominal Capacity [W], 63955.58880
 Component Sizing Information, Fan:ConstantVolume, PSZ-AC:6_FAN, Design Size Maximum Flow Rate [m3/s], 2.14034
Water Heater Information,WaterHeater:Mixed,SWHSYS1 WATER HEATER,0.4000,845000.0,1.740,0.5697
 Component Sizing Information, PlantLoop, SWHSYS1, Maximum Loop Flow Rate [m3/s], 1.05000E-005
 Component Sizing Information, PlantLoop, SWHSYS1, Plant Loop Volume [m3], 1.26000E-003
 Component Sizing Information, Pump:VariableSpeed, SWHSYS1 PUMP, Design Flow Rate [m3/s], 1.05000E-005
 Component Sizing Information, Pump:VariableSpeed, SWHSYS1 PUMP, Design Power Consumption [W], 1.34615E-006
 Component Sizing Information, WaterHeater:Mixed, SWHSYS1 WATER HEATER, Use Side Design Flow Rate [m3/s], 1.05000E-005
! <Environment>,Environment Name,Environment Type, Start Date, End Date, Start DayOfWeek, Duration {#days}, Source:Start DayOfWeek,  Use Daylight Saving, Use Holidays, Apply Weekend Holiday Rule,  Use Rain Values, Use Snow Values
! <Environment:Special Days>, Special Day Name, Special Day Type, Source, Start Date, Duration {#days}
! <Environment:Daylight Saving>, Daylight Saving Indicator, Source, Start Date, End Date
! <Environment:WarmupDays>, NumberofWarmupDays
Environment,RUNPERIOD 1,WeatherFileRunPeriod,01/01/2017,12/31/2017,Sunday,365,Use RunPeriod Specified Day,No,No,No,Yes,Yes
Environment:Daylight Saving,Yes,InputFile,03/12,11/05
Environment:Special Days,NEW YEARS DAY,Holiday,InputFile,01/01,  1
Environment:Special Days,VETERANS DAY,Holiday,InputFile,11/11,  1
Environment:Special Days,CHRISTMAS,Holiday,InputFile,12/25,  1
Environment:Special Days,INDEPENDENCE DAY,Holiday,InputFile,07/04,  1
Environment:Special Days,MLK DAY,Holiday,InputFile,01/16,  1
Environment:Special Days,PRESIDENTS DAY,Holiday,InputFile,02/20,  1
Environment:Special Days,MEMORIAL DAY,Holiday,InputFile,05/29,  1
Environment:Special Days,LABOR DAY,Holiday,InputFile,09/04,  1
Environment:Special Days,COLUMBUS DAY,Holiday,InputFile,10/09,  1
Environment:Special Days,THANKSGIVING,Holiday,InputFile,11/23,  1
Environment:WarmupDays,  6
! <Warmup Convergence Information>,Zone Name,Environment Type/Name,Average Warmup Temperature Difference {deltaC},Std Dev Warmup Temperature Difference {deltaC},Max Temperature Pass/Fail Convergence,Min Temperature Pass/Fail Convergence,Average Warmup Load Difference {W},Std Dev Warmup Load Difference {W},Heating Load Pass/Fail Convergence,Cooling Load Pass/Fail Convergence
 Warmup Convergence Information,BAKERY,RunPeriod: RUNPERIOD 1,0.1158321289,0.5535072562,Pass,Pass,0.2022077721,0.7482003778,Pass,Pass
 Warmup Convergence Information,DELI,RunPeriod: RUNPERIOD 1,0.1084838376,0.5335830273,Pass,Pass,0.2681710426,1.5709163162,Pass,Pass
 Warmup Convergence Information,DRYSTORAGE,RunPeriod: RUNPERIOD 1,0.1955848627,0.5329403414,Pass,Pass,0.1521614156,0.3208644339,Pass,Pass
 Warmup Convergence Information,OFFICE,RunPeriod: RUNPERIOD 1,0.2467843496,0.6478934518,Pass,Pass,0.1657065564,0.3321269595,Pass,Pass
 Warmup Convergence Information,PRODUCE,RunPeriod: RUNPERIOD 1,0.1896993129,0.5370489462,Pass,Pass,0.1610608695,0.3526228204,Pass,Pass
 Warmup Convergence Information,SALES,RunPeriod: RUNPERIOD 1,0.2416211167,0.5904802149,Pass,Pass,0.1720920997,0.3442206306,Pass,Pass
! <Program Control Information:Threads/Parallel Sims>, Threading Supported,Maximum Number of Threads, Env Set Threads (OMP_NUM_THREADS), EP Env Set Threads (EP_OMP_NUM_THREADS), IDF Set Threads, Number of Threads Used (Interior Radiant Exchange), Number Nominal Surfaces, Number Parallel Sims
Program Control:Threads/Parallel Sims, No,1, N/A, N/A, N/A, N/A, N/A, N/A
End of Data
