Program Version,EnergyPlus, Version 9.2.0-921312fa1d, YMD=2020.12.22 18:07,
   ** Warning ** Output:PreprocessorMessage="Conversion 7.2 => 8.0" has the following Warning conditions:
   **   ~~~   ** Boiler:HotWater="HeatSys1 Boiler"
   **   ~~~   ** defaults for this object have changed. Results may be different than previous. See
   **   ~~~   ** InputOutputReference document for details.
   ************* Beginning Zone Sizing Calculations
   ** Warning ** CheckUsedConstructions: There are 2 nominally unused constructions in input.
   **   ~~~   ** For explicit details on each unused construction, use Output:Diagnostics,DisplayExtraWarnings;
   ************* Beginning System Sizing Calculations
   ************* Beginning Plant Sizing Calculations
   ** Warning ** CalcTwoSpeedDXCoilStandardRating: Did not find an appropriate fan associated with DX coil named = "PSZ-AC_2:7_COOLC DXCOIL". Standard Ratings will not be calculated.
   ** Warning ** Output:Meter: invalid Key Name="EXTERIOREQUIPMENT:ELECTRICITY" - not found.
   ** Warning ** Output:Meter: invalid Key Name="HEATREJECTION:ELECTRICITY" - not found.
   ** Warning ** Output:Meter: invalid Key Name="HUMIDIFIER:ELECTRICITY" - not found.
   ** Warning ** Output:Meter: invalid Key Name="WATERSYSTEMS:ELECTRICITY" - not found.
   ** Warning ** Output:Meter: invalid Key Name="HEATREJECTION:ENERGYTRANSFER" - not found.
   ** Warning ** Output:Meter: invalid Key Name="HEATING:DISTRICTHEATING" - not found.
   ** Warning ** Output:Meter: invalid Key Name="COOLING:DISTRICTCOOLING" - not found.
   ** Warning ** Output:Meter: invalid Key Name="COOLING:GAS" - not found.
   ** Warning ** Output:Meter: invalid Key Name="BASEBOARD:ENERGYTRANSFER" - not found.
   ************* Testing Individual Branch Integrity
   ************* All Branches passed integrity testing
   ************* Testing Individual Supply Air Path Integrity
   ************* All Supply Air Paths passed integrity testing
   ************* Testing Individual Return Air Path Integrity
   ************* All Return Air Paths passed integrity testing
   ************* No node connection errors were found.
   ************* Beginning Simulation
   ** Warning ** In zone BATH_ZN_1_FLR_1 there is unbalanced air flow. Load due to induced outdoor air is neglected.
   **   ~~~   **  Environment=RUNPERIOD 1, at Simulation time=01/01 00:20 - 00:30
   **   ~~~   **   Flows [m3/s]: Inlets: 0.151953  Unbalanced exhausts: 0.283200  Returns: 0.000000
   **   ~~~   **   Infiltration: 1.318997E-002  Zone Ventilation: 0.000000  Mixing (incoming): 0.000000
   **   ~~~   **   Imbalance (excess outflow): 0.118057  Total system OA flow (for all airloops serving this zone): 4.818775
   **   ~~~   **   This error will only be reported once per zone.
   ** Warning ** CalcDoe2DXCoil: Coil:Cooling:DX:SingleSpeed "PSZ-AC_1:6_COOLC DXCOIL" - Air-cooled condenser inlet dry-bulb temperature below 0 C. Outdoor dry-bulb temperature = -1.02
   **   ~~~   **  ... Occurrence info = RUNPERIOD 1, 01/02 06:04 - 06:06
   **   ~~~   ** ... Operation at low ambient temperatures may require special performance curves.
   ** Warning ** CalcDoe2DXCoil: Coil:Cooling:DX:SingleSpeed "PSZ-AC_1:6_COOLC DXCOIL" - Full load outlet air dry-bulb temperature < 2C. This indicates the possibility of coil frost/freeze. Outlet temperature = -2.00 C.
   **   ~~~   **  ...Occurrence info = RUNPERIOD 1, 01/02 06:04 - 06:06
   **   ~~~   ** ... Possible reasons for low outlet air dry-bulb temperatures are: This DX coil
   **   ~~~   **    1) may have a low inlet air dry-bulb temperature. Inlet air temperature = 10.583 C.
   **   ~~~   **    2) may have a low air flow rate per watt of cooling capacity. Check inputs.
   **   ~~~   **    3) is used as part of a HX assisted cooling coil which uses a high sensible effectiveness. Check inputs.
   ** Warning ** CalcDoe2DXCoil: Coil:Cooling:DX:SingleSpeed "PSZ-AC_2:5_COOLC DXCOIL" - Air-cooled condenser inlet dry-bulb temperature below 0 C. Outdoor dry-bulb temperature = -11.02
   **   ~~~   **  ... Occurrence info = RUNPERIOD 1, 01/28 12:03 - 12:07
   **   ~~~   ** ... Operation at low ambient temperatures may require special performance curves.
   ** Warning ** CalcDoe2DXCoil: Coil:Cooling:DX:SingleSpeed "PSZ-AC_2:5_COOLC DXCOIL" - Full load outlet air dry-bulb temperature < 2C. This indicates the possibility of coil frost/freeze. Outlet temperature = -4.04 C.
   **   ~~~   **  ...Occurrence info = RUNPERIOD 1, 01/28 12:03 - 12:07
   **   ~~~   ** ... Possible reasons for low outlet air dry-bulb temperatures are: This DX coil
   **   ~~~   **    1) may have a low inlet air dry-bulb temperature. Inlet air temperature = 16.007 C.
   **   ~~~   **    2) may have a low air flow rate per watt of cooling capacity. Check inputs.
   **   ~~~   **    3) is used as part of a HX assisted cooling coil which uses a high sensible effectiveness. Check inputs.
   ************* Simulation Error Summary *************
   ** Warning ** The following Report Variables were requested but not generated -- check.rdd file
   **   ~~~   ** Either the IDF did not contain these elements, the variable name is misspelled,
   **   ~~~   ** or the requested variable is an advanced output which requires Output : Diagnostics, DisplayAdvancedReportVariables;
   ************* Key=*, VarName=ZONE IDEAL LOADS ZONE TOTAL COOLING ENERGY, Frequency=Hourly
   ************* Key=*, VarName=ZONE IDEAL LOADS ZONE TOTAL HEATING ENERGY, Frequency=Hourly
   ************* Key=*, VarName=HEAT EXCHANGER TOTAL HEATING RATE, Frequency=Hourly
   ************* Key=*, VarName=HEAT EXCHANGER SENSIBLE EFFECTIVENESS, Frequency=Hourly
   ************* Key=*, VarName=HEAT EXCHANGER LATENT EFFECTIVENESS, Frequency=Hourly
   *************
   ************* ===== Recurring Error Summary =====
   ************* The following recurring error messages occurred.
   *************
   *************  ** Warning ** CalcDoe2DXCoil: Coil:Cooling:DX:SingleSpeed="PSZ-AC_1:6_COOLC DXCOIL" - Low condenser dry-bulb temperature error continues...
   *************  **   ~~~   **   This error occurred 406 total times;
   *************  **   ~~~   **   during Warmup 0 times;
   *************  **   ~~~   **   during Sizing 0 times.
   *************  **   ~~~   **   Max=-3.333333E-002 [C]  Min=-11.316667 [C]
   *************
   *************  ** Warning ** CalcDoe2DXCoil: Coil:Cooling:DX:SingleSpeed="PSZ-AC_1:6_COOLC DXCOIL" - Full load outlet temperature indicates a possibility of frost/freeze error continues. Outlet air temperature statistics follow:
   *************  **   ~~~   **   This error occurred 894 total times;
   *************  **   ~~~   **   during Warmup 0 times;
   *************  **   ~~~   **   during Sizing 0 times.
   *************  **   ~~~   **   Max=1.96682  Min=-10.195381
   *************
   *************  ** Warning ** CalcDoe2DXCoil: Coil:Cooling:DX:SingleSpeed="PSZ-AC_2:5_COOLC DXCOIL" - Low condenser dry-bulb temperature error continues...
   *************  **   ~~~   **   This error occurred 1 total times;
   *************  **   ~~~   **   during Warmup 0 times;
   *************  **   ~~~   **   during Sizing 0 times.
   *************  **   ~~~   **   Max=-11.016667 [C]  Min=-11.016667 [C]
   *************
   *************  ** Warning ** CalcDoe2DXCoil: Coil:Cooling:DX:SingleSpeed="PSZ-AC_2:5_COOLC DXCOIL" - Full load outlet temperature indicates a possibility of frost/freeze error continues. Outlet air temperature statistics follow:
   *************  **   ~~~   **   This error occurred 105 total times;
   *************  **   ~~~   **   during Warmup 0 times;
   *************  **   ~~~   **   during Sizing 0 times.
   *************  **   ~~~   **   Max=1.997974  Min=-4.041683
   *************
   *************
   ************* ===== Final Error Summary =====
   ************* The following error categories occurred.  Consider correcting or noting.
   ************* Nominally Unused Constructions
   ************* ..The nominally unused constructions warning is provided to alert you to potential conditions that can cause
   ************* ..extra time during simulation. Each construction is calculated by the algorithm indicated in the HeatBalanceAlgorithm
   ************* ..object. You may remove the constructions indicated (when you use the DisplayExtraWarnings option).
   *************
   ************* EnergyPlus Warmup Error Summary. During Warmup: 0 Warning; 0 Severe Errors.
   ************* EnergyPlus Sizing Error Summary. During Sizing: 1 Warning; 0 Severe Errors.
   ************* EnergyPlus Completed Successfully-- 1420 Warning; 0 Severe Errors; Elapsed Time=00hr 01min 37.03sec
