Program Version,EnergyPlus, Version 9.2.0-921312fa1d, YMD=2020.12.22 18:15
! <Version>, Version ID
 Version, 9.2
! <Timesteps per Hour>, #TimeSteps, Minutes per TimeStep {minutes}
 Timesteps per Hour,  6, 10
! <System Convergence Limits>, Minimum System TimeStep {minutes}, Max HVAC Iterations, Minimum Plant Iterations, Maximum Plant Iterations
 System Convergence Limits, 2, 25, 2, 8
! <Simulation Control>, Do Zone Sizing, Do System Sizing, Do Plant Sizing, Do Design Days, Do Weather Simulation, Do HVAC Sizing Simulation
 Simulation Control, Yes, Yes, Yes, No, Yes, No
! <Output Reporting Tolerances>, Tolerance for Time Heating Setpoint Not Met, Tolerance for Zone Cooling Setpoint Not Met Time
 Output Reporting Tolerances, 0.556, 0.556, 
! <Site:GroundTemperature:BuildingSurface>,Jan{C},Feb{C},Mar{C},Apr{C},May{C},Jun{C},Jul{C},Aug{C},Sep{C},Oct{C},Nov{C},Dec{C}
 Site:GroundTemperature:BuildingSurface,  19.53,  19.50,  19.54,  19.60,  20.00,  21.64,  22.23,  22.38,  21.45,  20.12,  19.80,  19.63
! <Site:GroundTemperature:FCfactorMethod>,Jan{C},Feb{C},Mar{C},Apr{C},May{C},Jun{C},Jul{C},Aug{C},Sep{C},Oct{C},Nov{C},Dec{C}
 Site:GroundTemperature:FCfactorMethod,  -1.89,  -3.06,  -0.99,   2.23,  10.68,  17.20,  21.60,  22.94,  20.66,  15.60,   8.83,   2.56
! <Site:GroundTemperature:Shallow>,Jan{C},Feb{C},Mar{C},Apr{C},May{C},Jun{C},Jul{C},Aug{C},Sep{C},Oct{C},Nov{C},Dec{C}
 Site:GroundTemperature:Shallow,  13.00,  13.00,  13.00,  13.00,  13.00,  13.00,  13.00,  13.00,  13.00,  13.00,  13.00,  13.00
! <Site:GroundTemperature:Deep>,Jan{C},Feb{C},Mar{C},Apr{C},May{C},Jun{C},Jul{C},Aug{C},Sep{C},Oct{C},Nov{C},Dec{C}
 Site:GroundTemperature:Deep,  16.00,  16.00,  16.00,  16.00,  16.00,  16.00,  16.00,  16.00,  16.00,  16.00,  16.00,  16.00
! <Site:GroundReflectance>,Jan{dimensionless},Feb{dimensionless},Mar{dimensionless},Apr{dimensionless},May{dimensionless},Jun{dimensionless},Jul{dimensionless},Aug{dimensionless},Sep{dimensionless},Oct{dimensionless},Nov{dimensionless},Dec{dimensionless}
 Site:GroundReflectance,  0.20,  0.20,  0.20,  0.20,  0.20,  0.20,  0.20,  0.20,  0.20,  0.20,  0.20,  0.20
! <Site:GroundReflectance:SnowModifier>, Normal, Daylighting {dimensionless}
 Site:GroundReflectance:SnowModifier,   1.000,   1.000
! <Site:GroundReflectance:Snow>,Jan{dimensionless},Feb{dimensionless},Mar{dimensionless},Apr{dimensionless},May{dimensionless},Jun{dimensionless},Jul{dimensionless},Aug{dimensionless},Sep{dimensionless},Oct{dimensionless},Nov{dimensionless},Dec{dimensionless}
 Site:GroundReflectance:Snow,  0.20,  0.20,  0.20,  0.20,  0.20,  0.20,  0.20,  0.20,  0.20,  0.20,  0.20,  0.20
! <Site:GroundReflectance:Snow:Daylighting>,Jan{dimensionless},Feb{dimensionless},Mar{dimensionless},Apr{dimensionless},May{dimensionless},Jun{dimensionless},Jul{dimensionless},Aug{dimensionless},Sep{dimensionless},Oct{dimensionless},Nov{dimensionless},Dec{dimensionless}
 Site:GroundReflectance:Snow:Daylighting,  0.20,  0.20,  0.20,  0.20,  0.20,  0.20,  0.20,  0.20,  0.20,  0.20,  0.20,  0.20
! <Environment:Weather Station>,Wind Sensor Height Above Ground {m},Wind Speed Profile Exponent {},Wind Speed Profile Boundary Layer Thickness {m},Air Temperature Sensor Height Above Ground {m},Wind Speed Modifier Coefficient-Internal,Temperature Modifier Coefficient-Internal
Environment:Weather Station,10.000,0.140,270.000,1.500,1.586,9.750E-003
! <Site:Location>, Location Name, Latitude {N+/S- Deg}, Longitude {E+/W- Deg},  Time Zone Number {GMT+/-}, Elevation {m},  Standard Pressure at Elevation {Pa}, Standard RhoAir at Elevation
Site:Location,Chicago Ohare Intl Ap IL USA TMY3 WMO#=725300,41.98,-87.92,-6.00,201.00,98934,1.1759
! <Site Water Mains Temperature Information>,Calculation Method{},Water Mains Temperature Schedule Name{},Annual Average Outdoor Air Temperature{C},Maximum Difference In Monthly Average Outdoor Air Temperatures{deltaC},Fixed Default Water Mains Temperature{C}
Site Water Mains Temperature Information,Correlation,NA,9.69,28.10,NA
! Schedule Details Report=Hourly =====================
! <ScheduleType>,Name,Limited? {Yes/No},Minimum,Maximum,Continuous? {Yes/No - Discrete}
! <DaySchedule>,Name,ScheduleType,Interpolated {Yes/No},Time (HH:MM) =>,01:00,02:00,03:00,04:00,05:00,06:00,07:00,08:00,09:00,10:00,11:00,12:00,13:00,14:00,15:00,16:00,17:00,18:00,19:00,20:00,21:00,22:00,23:00,24:00
! <WeekSchedule>,Name,Sunday,Monday,Tuesday,Wednesday,Thursday,Friday,Saturday,Holiday,SummerDesignDay,WinterDesignDay,CustomDay1,CustomDay2
! <Schedule>,Name,ScheduleType,{Until Date,WeekSchedule}** Repeated until Dec 31
ScheduleTypeLimits,ANY NUMBER,No,N/A,N/A,N/A
ScheduleTypeLimits,FRACTION,Average,0.00,1.00,Yes
ScheduleTypeLimits,TEMPERATURE,Average,-60.00,200.00,Yes
ScheduleTypeLimits,ON/OFF,Average,0,1,No
ScheduleTypeLimits,CONTROL TYPE,Average,0,4,No
ScheduleTypeLimits,HUMIDITY,Average,10.00,90.00,Yes
ScheduleTypeLimits,NUMBER,No,N/A,N/A,N/A
DaySchedule,ALWAYS_ON_dy_1,ON/OFF,No,Values:,1.00,1.00,1.00,1.00,1.00,1.00,1.00,1.00,1.00,1.00,1.00,1.00,1.00,1.00,1.00,1.00,1.00,1.00,1.00,1.00,1.00,1.00,1.00,1.00
DaySchedule,KITCHEN_EXHAUST_SCH_dy_1,FRACTION,No,Values:,0.00,0.00,0.00,0.00,0.00,0.00,1.00,1.00,1.00,1.00,1.00,1.00,1.00,1.00,1.00,1.00,1.00,1.00,1.00,1.00,1.00,0.00,0.00,0.00
DaySchedule,KITCHEN_EXHAUST_SCH_dy_2,FRACTION,No,Values:,0.00,0.00,0.00,0.00,0.00,0.00,0.00,0.00,0.00,0.00,0.00,0.00,0.00,0.00,0.00,0.00,0.00,0.00,0.00,0.00,0.00,0.00,0.00,0.00
DaySchedule,BLDG_ELEVATORS_dy_1,FRACTION,No,Values:,0.00,0.00,0.00,0.00,0.00,0.00,0.00,0.00,0.30,0.30,0.30,0.30,0.30,0.30,0.30,0.15,0.00,0.00,0.00,0.00,0.00,0.00,0.00,0.00
DaySchedule,BLDG_ELEVATORS_dy_2,FRACTION,No,Values:,0.00,0.00,0.00,0.00,0.00,0.00,0.00,0.00,0.00,0.00,0.00,0.00,0.00,0.00,0.00,0.00,0.00,0.00,0.00,0.00,0.00,0.00,0.00,0.00
DaySchedule,BLDG_EQUIP_SCH_dy_1,FRACTION,No,Values:,0.35,0.35,0.35,0.35,0.35,0.35,0.35,0.35,0.95,0.95,0.95,0.95,0.95,0.95,0.95,0.95,0.95,0.35,0.35,0.35,0.35,0.35,0.35,0.35
DaySchedule,BLDG_EQUIP_SCH_dy_2,FRACTION,No,Values:,0.35,0.35,0.35,0.35,0.35,0.35,0.35,0.35,0.35,0.35,0.35,0.35,0.35,0.35,0.35,0.35,0.35,0.35,0.35,0.35,0.35,0.35,0.35,0.35
DaySchedule,BLDG_EQUIP_SCH_dy_3,FRACTION,No,Values:,0.25,0.25,0.25,0.25,0.25,0.25,0.25,0.25,0.50,0.50,0.50,0.50,0.50,0.50,0.50,0.50,0.50,0.25,0.25,0.25,0.25,0.25,0.25,0.25
DaySchedule,BLDG_EQUIP_SCH_dy_4,FRACTION,No,Values:,0.25,0.25,0.25,0.25,0.25,0.25,0.25,0.25,0.25,0.25,0.25,0.25,0.25,0.25,0.25,0.25,0.25,0.25,0.25,0.25,0.25,0.25,0.25,0.25
DaySchedule,BLDG_EQUIP_SCH_dy_5,FRACTION,No,Values:,0.35,0.35,0.35,0.35,0.35,0.35,0.35,0.35,0.95,0.95,0.95,0.95,0.95,0.95,0.95,0.95,0.95,0.35,0.35,0.35,0.35,0.35,0.35,0.35
DaySchedule,BLDG_EQUIP_SCH_dy_6,FRACTION,No,Values:,0.35,0.35,0.35,0.35,0.35,0.35,0.35,0.35,0.35,0.35,0.35,0.35,0.35,0.35,0.35,0.35,0.35,0.35,0.35,0.35,0.35,0.35,0.35,0.35
DaySchedule,BLDG_LIGHT_SCH_dy_1,FRACTION,No,Values:,0.18,0.18,0.18,0.18,0.18,0.18,0.18,0.90,0.90,0.90,0.90,0.90,0.90,0.90,0.90,0.90,0.90,0.90,0.90,0.90,0.90,0.18,0.18,0.18
DaySchedule,BLDG_LIGHT_SCH_dy_2,FRACTION,No,Values:,0.18,0.18,0.18,0.18,0.18,0.18,0.18,0.18,0.18,0.18,0.18,0.18,0.18,0.18,0.18,0.18,0.18,0.18,0.18,0.18,0.18,0.18,0.18,0.18
DaySchedule,BLDG_LIGHT_SCH_dy_3,FRACTION,No,Values:,0.18,0.18,0.18,0.18,0.18,0.18,0.18,0.18,0.50,0.50,0.50,0.50,0.50,0.50,0.50,0.50,0.50,0.50,0.50,0.50,0.18,0.18,0.18,0.18
DaySchedule,BLDG_LIGHT_SCH_dy_4,FRACTION,No,Values:,0.18,0.18,0.18,0.18,0.18,0.18,0.18,0.18,0.18,0.18,0.18,0.18,0.18,0.18,0.18,0.18,0.18,0.18,0.18,0.18,0.18,0.18,0.18,0.18
DaySchedule,BLDG_LIGHT_SCH_dy_5,FRACTION,No,Values:,0.18,0.18,0.18,0.18,0.18,0.18,0.18,0.90,0.90,0.90,0.90,0.90,0.90,0.90,0.90,0.90,0.90,0.90,0.90,0.90,0.90,0.18,0.18,0.18
DaySchedule,BLDG_LIGHT_SCH_dy_6,FRACTION,No,Values:,0.18,0.18,0.18,0.18,0.18,0.18,0.18,0.18,0.18,0.18,0.18,0.18,0.18,0.18,0.18,0.18,0.18,0.18,0.18,0.18,0.18,0.18,0.18,0.18
DaySchedule,BLDG_OCC_SCH_dy_1,FRACTION,No,Values:,0.00,0.00,0.00,0.00,0.00,0.00,0.00,0.00,0.70,0.70,0.70,0.70,0.70,0.70,0.70,0.70,0.15,0.15,0.15,0.15,0.15,0.00,0.00,0.00
DaySchedule,BLDG_OCC_SCH_dy_2,FRACTION,No,Values:,0.00,0.00,0.00,0.00,0.00,0.00,0.00,0.00,0.00,0.00,0.00,0.00,0.00,0.00,0.00,0.00,0.00,0.00,0.00,0.00,0.00,0.00,0.00,0.00
DaySchedule,BLDG_OCC_SCH_dy_3,FRACTION,No,Values:,0.00,0.00,0.00,0.00,0.00,0.00,0.00,0.00,0.15,0.15,0.15,0.15,0.15,0.15,0.15,0.15,0.15,0.15,0.15,0.15,0.15,0.00,0.00,0.00
DaySchedule,BLDG_OCC_SCH_dy_4,FRACTION,No,Values:,0.00,0.00,0.00,0.00,0.00,0.00,0.00,0.00,0.00,0.00,0.00,0.00,0.00,0.00,0.00,0.00,0.00,0.00,0.00,0.00,0.00,0.00,0.00,0.00
DaySchedule,BLDG_OCC_SCH_dy_5,FRACTION,No,Values:,0.00,0.00,0.00,0.00,0.00,0.00,0.00,0.00,0.70,0.70,0.70,0.70,0.70,0.70,0.70,0.70,0.15,0.15,0.15,0.15,0.15,0.00,0.00,0.00
DaySchedule,BLDG_OCC_SCH_dy_6,FRACTION,No,Values:,0.00,0.00,0.00,0.00,0.00,0.00,0.00,0.00,0.00,0.00,0.00,0.00,0.00,0.00,0.00,0.00,0.00,0.00,0.00,0.00,0.00,0.00,0.00,0.00
DaySchedule,BLDG_OCC_SCH_AUDITORIUM_dy_1,FRACTION,No,Values:,0.00,0.00,0.00,0.00,0.00,0.00,0.00,0.00,0.25,0.25,0.25,0.25,0.25,0.25,0.25,0.95,0.95,0.10,0.10,0.10,0.00,0.00,0.00,0.00
DaySchedule,BLDG_OCC_SCH_AUDITORIUM_dy_2,FRACTION,No,Values:,0.00,0.00,0.00,0.00,0.00,0.00,0.00,0.00,0.00,0.00,0.00,0.00,0.00,0.00,0.00,0.00,0.00,0.00,0.00,0.00,0.00,0.00,0.00,0.00
DaySchedule,BLDG_OCC_SCH_AUDITORIUM_dy_3,FRACTION,No,Values:,0.00,0.00,0.00,0.00,0.00,0.00,0.00,0.00,0.15,0.15,0.15,0.15,0.15,0.15,0.15,0.15,0.15,0.35,0.35,0.00,0.00,0.00,0.00,0.00
DaySchedule,BLDG_OCC_SCH_AUDITORIUM_dy_4,FRACTION,No,Values:,0.00,0.00,0.00,0.00,0.00,0.00,0.00,0.00,0.00,0.00,0.00,0.00,0.00,0.00,0.00,0.00,0.00,0.00,0.00,0.00,0.00,0.00,0.00,0.00
DaySchedule,BLDG_OCC_SCH_AUDITORIUM_dy_5,FRACTION,No,Values:,0.00,0.00,0.00,0.00,0.00,0.00,0.00,0.00,0.25,0.25,0.25,0.25,0.25,0.25,0.25,0.95,0.95,0.10,0.10,0.10,0.00,0.00,0.00,0.00
DaySchedule,BLDG_OCC_SCH_AUDITORIUM_dy_6,FRACTION,No,Values:,0.00,0.00,0.00,0.00,0.00,0.00,0.00,0.00,0.00,0.00,0.00,0.00,0.00,0.00,0.00,0.00,0.00,0.00,0.00,0.00,0.00,0.00,0.00,0.00
DaySchedule,BLDG_OCC_SCH_CAFETERIA_dy_1,FRACTION,No,Values:,0.00,0.00,0.00,0.00,0.00,0.00,0.00,0.15,0.15,5.00E-002,5.00E-002,0.95,0.95,0.15,0.15,0.00,0.00,0.00,0.00,0.00,0.00,0.00,0.00,0.00
DaySchedule,BLDG_OCC_SCH_CAFETERIA_dy_2,FRACTION,No,Values:,0.00,0.00,0.00,0.00,0.00,0.00,0.00,0.00,0.00,0.00,0.00,0.00,0.00,0.00,0.00,0.00,0.00,0.00,0.00,0.00,0.00,0.00,0.00,0.00
DaySchedule,BLDG_OCC_SCH_CAFETERIA_dy_3,FRACTION,No,Values:,0.00,0.00,0.00,0.00,0.00,0.00,0.00,0.00,0.00,0.25,0.25,0.25,0.25,0.25,0.25,0.00,0.00,0.00,0.00,0.00,0.00,0.00,0.00,0.00
DaySchedule,BLDG_OCC_SCH_CAFETERIA_dy_4,FRACTION,No,Values:,0.00,0.00,0.00,0.00,0.00,0.00,0.00,0.00,0.00,0.00,0.00,0.00,0.00,0.00,0.00,0.00,0.00,0.00,0.00,0.00,0.00,0.00,0.00,0.00
DaySchedule,BLDG_OCC_SCH_CAFETERIA_dy_5,FRACTION,No,Values:,0.00,0.00,0.00,0.00,0.00,0.00,0.00,0.15,0.15,5.00E-002,5.00E-002,0.95,0.95,0.15,0.15,0.00,0.00,0.00,0.00,0.00,0.00,0.00,0.00,0.00
DaySchedule,BLDG_OCC_SCH_CAFETERIA_dy_6,FRACTION,No,Values:,0.00,0.00,0.00,0.00,0.00,0.00,0.00,0.00,0.00,0.00,0.00,0.00,0.00,0.00,0.00,0.00,0.00,0.00,0.00,0.00,0.00,0.00,0.00,0.00
DaySchedule,BLDG_OCC_SCH_EXTEND_dy_1,FRACTION,No,Values:,0.00,0.00,0.00,0.00,0.00,0.00,0.00,0.00,0.70,0.70,0.70,0.70,0.70,0.70,0.70,0.70,0.70,0.70,0.70,0.70,0.70,0.00,0.00,0.00
DaySchedule,BLDG_OCC_SCH_EXTEND_dy_2,FRACTION,No,Values:,0.00,0.00,0.00,0.00,0.00,0.00,0.00,0.00,0.00,0.00,0.00,0.00,0.00,0.00,0.00,0.00,0.00,0.00,0.00,0.00,0.00,0.00,0.00,0.00
DaySchedule,BLDG_OCC_SCH_EXTEND_dy_3,FRACTION,No,Values:,0.00,0.00,0.00,0.00,0.00,0.00,0.00,0.00,0.50,0.50,0.50,0.50,0.50,0.50,0.50,0.50,0.50,0.50,0.50,0.50,0.50,0.00,0.00,0.00
DaySchedule,BLDG_OCC_SCH_EXTEND_dy_4,FRACTION,No,Values:,0.00,0.00,0.00,0.00,0.00,0.00,0.00,0.00,0.00,0.00,0.00,0.00,0.00,0.00,0.00,0.00,0.00,0.00,0.00,0.00,0.00,0.00,0.00,0.00
DaySchedule,BLDG_OCC_SCH_EXTEND_dy_5,FRACTION,No,Values:,0.00,0.00,0.00,0.00,0.00,0.00,0.00,0.00,0.70,0.70,0.70,0.70,0.70,0.70,0.70,0.70,0.70,0.70,0.70,0.70,0.70,0.00,0.00,0.00
DaySchedule,BLDG_OCC_SCH_EXTEND_dy_6,FRACTION,No,Values:,0.00,0.00,0.00,0.00,0.00,0.00,0.00,0.00,0.00,0.00,0.00,0.00,0.00,0.00,0.00,0.00,0.00,0.00,0.00,0.00,0.00,0.00,0.00,0.00
DaySchedule,BLDG_OCC_SCH_GYM_dy_1,FRACTION,No,Values:,0.00,0.00,0.00,0.00,0.00,0.00,0.00,0.00,0.35,0.35,0.35,0.35,0.35,0.35,0.35,0.35,0.95,0.95,0.95,0.95,0.95,0.00,0.00,0.00
DaySchedule,BLDG_OCC_SCH_GYM_dy_2,FRACTION,No,Values:,0.00,0.00,0.00,0.00,0.00,0.00,0.00,0.00,0.00,0.00,0.00,0.00,0.00,0.00,0.00,0.00,0.00,0.00,0.00,0.00,0.00,0.00,0.00,0.00
DaySchedule,BLDG_OCC_SCH_GYM_dy_3,FRACTION,No,Values:,0.00,0.00,0.00,0.00,0.00,0.00,0.00,0.00,0.35,0.35,0.35,0.35,0.35,0.35,0.35,0.35,0.35,0.35,0.35,0.35,0.35,0.00,0.00,0.00
DaySchedule,BLDG_OCC_SCH_GYM_dy_4,FRACTION,No,Values:,0.00,0.00,0.00,0.00,0.00,0.00,0.00,0.00,0.00,0.00,0.00,0.00,0.00,0.00,0.00,0.00,0.00,0.00,0.00,0.00,0.00,0.00,0.00,0.00
DaySchedule,BLDG_OCC_SCH_GYM_dy_5,FRACTION,No,Values:,0.00,0.00,0.00,0.00,0.00,0.00,0.00,0.00,0.35,0.35,0.35,0.35,0.35,0.35,0.35,0.35,0.95,0.95,0.95,0.95,0.95,0.00,0.00,0.00
DaySchedule,BLDG_OCC_SCH_GYM_dy_6,FRACTION,No,Values:,0.00,0.00,0.00,0.00,0.00,0.00,0.00,0.00,0.00,0.00,0.00,0.00,0.00,0.00,0.00,0.00,0.00,0.00,0.00,0.00,0.00,0.00,0.00,0.00
DaySchedule,BLDG_OCC_SCH_OFFICES_dy_1,FRACTION,No,Values:,0.00,0.00,0.00,0.00,0.00,0.00,0.00,0.00,0.95,0.95,0.95,0.95,0.95,0.95,0.95,0.95,0.95,0.15,0.15,0.15,0.15,0.00,0.00,0.00
DaySchedule,BLDG_OCC_SCH_OFFICES_dy_2,FRACTION,No,Values:,0.00,0.00,0.00,0.00,0.00,0.00,0.00,0.00,0.00,0.00,0.00,0.00,0.00,0.00,0.00,0.00,0.00,0.00,0.00,0.00,0.00,0.00,0.00,0.00
DaySchedule,BLDG_OCC_SCH_OFFICES_dy_3,FRACTION,No,Values:,0.00,0.00,0.00,0.00,0.00,0.00,0.00,0.00,0.50,0.50,0.50,0.50,0.50,0.50,0.50,0.50,0.50,0.00,0.00,0.00,0.00,0.00,0.00,0.00
DaySchedule,BLDG_OCC_SCH_OFFICES_dy_4,FRACTION,No,Values:,0.00,0.00,0.00,0.00,0.00,0.00,0.00,0.00,0.00,0.00,0.00,0.00,0.00,0.00,0.00,0.00,0.00,0.00,0.00,0.00,0.00,0.00,0.00,0.00
DaySchedule,BLDG_OCC_SCH_OFFICES_dy_5,FRACTION,No,Values:,0.00,0.00,0.00,0.00,0.00,0.00,0.00,0.00,0.95,0.95,0.95,0.95,0.95,0.95,0.95,0.95,0.95,0.15,0.15,0.15,0.15,0.00,0.00,0.00
DaySchedule,BLDG_OCC_SCH_OFFICES_dy_6,FRACTION,No,Values:,0.00,0.00,0.00,0.00,0.00,0.00,0.00,0.00,0.00,0.00,0.00,0.00,0.00,0.00,0.00,0.00,0.00,0.00,0.00,0.00,0.00,0.00,0.00,0.00
DaySchedule,KITCHEN_ELEC_EQUIP_SCH_dy_1,FRACTION,No,Values:,0.10,0.10,0.10,0.10,0.10,0.10,0.10,0.10,0.15,0.15,0.25,0.25,0.25,0.15,0.15,0.10,0.10,0.10,0.10,0.10,0.10,0.10,0.10,0.10
DaySchedule,KITCHEN_ELEC_EQUIP_SCH_dy_2,FRACTION,No,Values:,0.10,0.10,0.10,0.10,0.10,0.10,0.10,0.10,0.10,0.10,0.10,0.10,0.10,0.10,0.10,0.10,0.10,0.10,0.10,0.10,0.10,0.10,0.10,0.10
DaySchedule,KITCHEN_ELEC_EQUIP_SCH_dy_3,FRACTION,No,Values:,0.10,0.10,0.10,0.10,0.10,0.10,0.10,0.10,0.13,0.13,0.20,0.20,0.20,0.13,0.13,0.10,0.10,0.10,0.10,0.10,0.10,0.10,0.10,0.10
DaySchedule,KITCHEN_ELEC_EQUIP_SCH_dy_4,FRACTION,No,Values:,0.10,0.10,0.10,0.10,0.10,0.10,0.10,0.10,0.10,0.10,0.10,0.10,0.10,0.10,0.10,0.10,0.10,0.10,0.10,0.10,0.10,0.10,0.10,0.10
DaySchedule,KITCHEN_ELEC_EQUIP_SCH_dy_5,FRACTION,No,Values:,0.10,0.10,0.10,0.10,0.10,0.10,0.10,0.10,0.15,0.15,0.25,0.25,0.25,0.15,0.15,0.10,0.10,0.10,0.10,0.10,0.10,0.10,0.10,0.10
DaySchedule,KITCHEN_ELEC_EQUIP_SCH_dy_6,FRACTION,No,Values:,0.10,0.10,0.10,0.10,0.10,0.10,0.10,0.10,0.10,0.10,0.10,0.10,0.10,0.10,0.10,0.10,0.10,0.10,0.10,0.10,0.10,0.10,0.10,0.10
DaySchedule,KITCHEN_GAS_EQUIP_SCH_dy_1,FRACTION,No,Values:,2.00E-002,2.00E-002,2.00E-002,2.00E-002,2.00E-002,2.00E-002,2.00E-002,2.00E-002,0.15,0.15,0.20,0.20,0.20,0.10,0.10,2.00E-002,2.00E-002,2.00E-002,2.00E-002,2.00E-002,2.00E-002,2.00E-002,2.00E-002,2.00E-002
DaySchedule,KITCHEN_GAS_EQUIP_SCH_dy_2,FRACTION,No,Values:,2.00E-002,2.00E-002,2.00E-002,2.00E-002,2.00E-002,2.00E-002,2.00E-002,2.00E-002,2.00E-002,2.00E-002,2.00E-002,2.00E-002,2.00E-002,2.00E-002,2.00E-002,2.00E-002,2.00E-002,2.00E-002,2.00E-002,2.00E-002,2.00E-002,2.00E-002,2.00E-002,2.00E-002
DaySchedule,KITCHEN_GAS_EQUIP_SCH_dy_3,FRACTION,No,Values:,2.00E-002,2.00E-002,2.00E-002,2.00E-002,2.00E-002,2.00E-002,2.00E-002,2.00E-002,0.10,0.10,0.15,0.15,0.15,0.10,0.10,2.00E-002,2.00E-002,2.00E-002,2.00E-002,2.00E-002,2.00E-002,2.00E-002,2.00E-002,2.00E-002
DaySchedule,KITCHEN_GAS_EQUIP_SCH_dy_4,FRACTION,No,Values:,2.00E-002,2.00E-002,2.00E-002,2.00E-002,2.00E-002,2.00E-002,2.00E-002,2.00E-002,2.00E-002,2.00E-002,2.00E-002,2.00E-002,2.00E-002,2.00E-002,2.00E-002,2.00E-002,2.00E-002,2.00E-002,2.00E-002,2.00E-002,2.00E-002,2.00E-002,2.00E-002,2.00E-002
DaySchedule,KITCHEN_GAS_EQUIP_SCH_dy_5,FRACTION,No,Values:,2.00E-002,2.00E-002,2.00E-002,2.00E-002,2.00E-002,2.00E-002,2.00E-002,2.00E-002,0.15,0.15,0.20,0.20,0.20,0.10,0.10,2.00E-002,2.00E-002,2.00E-002,2.00E-002,2.00E-002,2.00E-002,2.00E-002,2.00E-002,2.00E-002
DaySchedule,KITCHEN_GAS_EQUIP_SCH_dy_6,FRACTION,No,Values:,2.00E-002,2.00E-002,2.00E-002,2.00E-002,2.00E-002,2.00E-002,2.00E-002,2.00E-002,2.00E-002,2.00E-002,2.00E-002,2.00E-002,2.00E-002,2.00E-002,2.00E-002,2.00E-002,2.00E-002,2.00E-002,2.00E-002,2.00E-002,2.00E-002,2.00E-002,2.00E-002,2.00E-002
DaySchedule,INFIL_SCH_dy_1,FRACTION,No,Values:,1.00,1.00,1.00,1.00,1.00,1.00,1.00,0.50,0.50,0.50,0.50,0.50,0.50,0.50,0.50,0.50,0.50,0.50,0.50,0.50,0.50,1.00,1.00,1.00
DaySchedule,ACTIVITY_SCH_dy_1,ANY NUMBER,No,Values:,120.00,120.00,120.00,120.00,120.00,120.00,120.00,120.00,120.00,120.00,120.00,120.00,120.00,120.00,120.00,120.00,120.00,120.00,120.00,120.00,120.00,120.00,120.00,120.00
DaySchedule,AIR_VELO_SCH_dy_1,ANY NUMBER,No,Values:,0.20,0.20,0.20,0.20,0.20,0.20,0.20,0.20,0.20,0.20,0.20,0.20,0.20,0.20,0.20,0.20,0.20,0.20,0.20,0.20,0.20,0.20,0.20,0.20
DaySchedule,CLOTHING_SCH_dy_1,ANY NUMBER,No,Values:,1.10,1.10,1.10,1.10,1.10,1.10,1.10,1.10,1.10,1.10,1.10,1.10,1.10,1.10,1.10,1.10,1.10,1.10,1.10,1.10,1.10,1.10,1.10,1.10
DaySchedule,CLOTHING_SCH_dy_2,ANY NUMBER,No,Values:,0.60,0.60,0.60,0.60,0.60,0.60,0.60,0.60,0.60,0.60,0.60,0.60,0.60,0.60,0.60,0.60,0.60,0.60,0.60,0.60,0.60,0.60,0.60,0.60
DaySchedule,CLOTHING_SCH_dy_3,ANY NUMBER,No,Values:,1.10,1.10,1.10,1.10,1.10,1.10,1.10,1.10,1.10,1.10,1.10,1.10,1.10,1.10,1.10,1.10,1.10,1.10,1.10,1.10,1.10,1.10,1.10,1.10
DaySchedule,WORK_EFF_SCH_dy_1,FRACTION,No,Values:,0.00,0.00,0.00,0.00,0.00,0.00,0.00,0.00,0.00,0.00,0.00,0.00,0.00,0.00,0.00,0.00,0.00,0.00,0.00,0.00,0.00,0.00,0.00,0.00
DaySchedule,CLGSETP_SCH_dy_1,TEMPERATURE,No,Values:,24.00,24.00,24.00,24.00,24.00,24.00,24.00,24.00,24.00,24.00,24.00,24.00,24.00,24.00,24.00,24.00,24.00,24.00,24.00,24.00,24.00,24.00,24.00,24.00
DaySchedule,CLGSETP_SCH_dy_2,TEMPERATURE,No,Values:,27.00,27.00,27.00,27.00,27.00,27.00,27.00,27.00,27.00,27.00,27.00,27.00,27.00,27.00,27.00,27.00,27.00,27.00,27.00,27.00,27.00,27.00,27.00,27.00
DaySchedule,CLGSETP_SCH_dy_3,TEMPERATURE,No,Values:,27.00,27.00,27.00,27.00,27.00,27.00,24.00,24.00,24.00,24.00,24.00,24.00,24.00,24.00,24.00,24.00,24.00,24.00,24.00,24.00,24.00,27.00,27.00,27.00
DaySchedule,CLGSETP_SCH_dy_4,TEMPERATURE,No,Values:,24.00,24.00,24.00,24.00,24.00,24.00,24.00,24.00,24.00,24.00,24.00,24.00,24.00,24.00,24.00,24.00,24.00,24.00,24.00,24.00,24.00,24.00,24.00,24.00
DaySchedule,CLGSETP_SCH_dy_5,TEMPERATURE,No,Values:,27.00,27.00,27.00,27.00,27.00,27.00,27.00,27.00,27.00,27.00,27.00,27.00,27.00,27.00,27.00,27.00,27.00,27.00,27.00,27.00,27.00,27.00,27.00,27.00
DaySchedule,CLGSETP_SCH_dy_6,TEMPERATURE,No,Values:,27.00,27.00,27.00,27.00,27.00,27.00,27.00,24.00,24.00,24.00,24.00,24.00,24.00,24.00,24.00,24.00,24.00,24.00,27.00,27.00,27.00,27.00,27.00,27.00
DaySchedule,CLGSETP_SCH_dy_7,TEMPERATURE,No,Values:,24.00,24.00,24.00,24.00,24.00,24.00,24.00,24.00,24.00,24.00,24.00,24.00,24.00,24.00,24.00,24.00,24.00,24.00,24.00,24.00,24.00,24.00,24.00,24.00
DaySchedule,CLGSETP_SCH_dy_8,TEMPERATURE,No,Values:,27.00,27.00,27.00,27.00,27.00,27.00,27.00,27.00,27.00,27.00,27.00,27.00,27.00,27.00,27.00,27.00,27.00,27.00,27.00,27.00,27.00,27.00,27.00,27.00
DaySchedule,CLGSETP_SCH_dy_9,TEMPERATURE,No,Values:,27.00,27.00,27.00,27.00,27.00,27.00,24.00,24.00,24.00,24.00,24.00,24.00,24.00,24.00,24.00,24.00,24.00,24.00,24.00,24.00,24.00,27.00,27.00,27.00
DaySchedule,CLGSETP_SCH_BATHCORRMECHKITCHEN_dy_1,TEMPERATURE,No,Values:,27.00,27.00,27.00,27.00,27.00,27.00,24.00,24.00,24.00,24.00,24.00,24.00,24.00,24.00,24.00,24.00,24.00,24.00,24.00,24.00,24.00,27.00,27.00,27.00
DaySchedule,CLGSETP_SCH_BATHCORRMECHKITCHEN_dy_2,TEMPERATURE,No,Values:,27.00,27.00,27.00,27.00,27.00,27.00,27.00,27.00,27.00,27.00,27.00,27.00,27.00,27.00,27.00,27.00,27.00,27.00,27.00,27.00,27.00,27.00,27.00,27.00
DaySchedule,HTGSETP_SCH_dy_1,TEMPERATURE,No,Values:,21.00,21.00,21.00,21.00,21.00,21.00,21.00,21.00,21.00,21.00,21.00,21.00,21.00,21.00,21.00,21.00,21.00,21.00,21.00,21.00,21.00,21.00,21.00,21.00
DaySchedule,HTGSETP_SCH_dy_2,TEMPERATURE,No,Values:,16.00,16.00,16.00,16.00,16.00,16.00,16.00,16.00,16.00,16.00,16.00,16.00,16.00,16.00,16.00,16.00,16.00,16.00,16.00,16.00,16.00,16.00,16.00,16.00
DaySchedule,HTGSETP_SCH_dy_3,TEMPERATURE,No,Values:,16.00,16.00,16.00,16.00,16.00,16.00,21.00,21.00,21.00,21.00,21.00,21.00,21.00,21.00,21.00,21.00,21.00,21.00,21.00,21.00,21.00,16.00,16.00,16.00
DaySchedule,HTGSETP_SCH_dy_4,TEMPERATURE,No,Values:,21.00,21.00,21.00,21.00,21.00,21.00,21.00,21.00,21.00,21.00,21.00,21.00,21.00,21.00,21.00,21.00,21.00,21.00,21.00,21.00,21.00,21.00,21.00,21.00
DaySchedule,HTGSETP_SCH_dy_5,TEMPERATURE,No,Values:,16.00,16.00,16.00,16.00,16.00,16.00,16.00,16.00,16.00,16.00,16.00,16.00,16.00,16.00,16.00,16.00,16.00,16.00,16.00,16.00,16.00,16.00,16.00,16.00
DaySchedule,HTGSETP_SCH_dy_6,TEMPERATURE,No,Values:,16.00,16.00,16.00,16.00,16.00,16.00,16.00,21.00,21.00,21.00,21.00,21.00,21.00,21.00,21.00,21.00,21.00,21.00,16.00,16.00,16.00,16.00,16.00,16.00
DaySchedule,HTGSETP_SCH_dy_7,TEMPERATURE,No,Values:,21.00,21.00,21.00,21.00,21.00,21.00,21.00,21.00,21.00,21.00,21.00,21.00,21.00,21.00,21.00,21.00,21.00,21.00,21.00,21.00,21.00,21.00,21.00,21.00
DaySchedule,HTGSETP_SCH_dy_8,TEMPERATURE,No,Values:,16.00,16.00,16.00,16.00,16.00,16.00,16.00,16.00,16.00,16.00,16.00,16.00,16.00,16.00,16.00,16.00,16.00,16.00,16.00,16.00,16.00,16.00,16.00,16.00
DaySchedule,HTGSETP_SCH_dy_9,TEMPERATURE,No,Values:,16.00,16.00,16.00,16.00,16.00,16.00,21.00,21.00,21.00,21.00,21.00,21.00,21.00,21.00,21.00,21.00,21.00,21.00,21.00,21.00,21.00,16.00,16.00,16.00
DaySchedule,HTGSETP_SCH_BATHCORRMECHKITCHEN_dy_1,TEMPERATURE,No,Values:,16.00,16.00,16.00,16.00,16.00,16.00,21.00,21.00,21.00,21.00,21.00,21.00,21.00,21.00,21.00,21.00,21.00,21.00,21.00,21.00,21.00,16.00,16.00,16.00
DaySchedule,HTGSETP_SCH_BATHCORRMECHKITCHEN_dy_2,TEMPERATURE,No,Values:,16.00,16.00,16.00,16.00,16.00,16.00,16.00,16.00,16.00,16.00,16.00,16.00,16.00,16.00,16.00,16.00,16.00,16.00,16.00,16.00,16.00,16.00,16.00,16.00
DaySchedule,HVACOPERATIONSCHD_dy_1,ON/OFF,No,Values:,0.00,0.00,0.00,0.00,0.00,0.00,1.00,1.00,1.00,1.00,1.00,1.00,1.00,1.00,1.00,1.00,1.00,1.00,1.00,1.00,1.00,0.00,0.00,0.00
DaySchedule,HVACOPERATIONSCHD_dy_2,ON/OFF,No,Values:,0.00,0.00,0.00,0.00,0.00,0.00,0.00,0.00,0.00,0.00,0.00,0.00,0.00,0.00,0.00,0.00,0.00,0.00,0.00,0.00,0.00,0.00,0.00,0.00
DaySchedule,MINOA_SCHED_dy_1,ON/OFF,No,Values:,0.00,0.00,0.00,0.00,0.00,0.00,1.00,1.00,1.00,1.00,1.00,1.00,1.00,1.00,1.00,1.00,1.00,1.00,1.00,1.00,1.00,0.00,0.00,0.00
DaySchedule,MINOA_SCHED_dy_2,ON/OFF,No,Values:,0.00,0.00,0.00,0.00,0.00,0.00,0.00,0.00,0.00,0.00,0.00,0.00,0.00,0.00,0.00,0.00,0.00,0.00,0.00,0.00,0.00,0.00,0.00,0.00
DaySchedule,SEASONAL-RESET-SUPPLY-AIR-TEMP-SCH_dy_1,TEMPERATURE,No,Values:,12.80,12.80,12.80,12.80,12.80,12.80,12.80,12.80,12.80,12.80,12.80,12.80,12.80,12.80,12.80,12.80,12.80,12.80,12.80,12.80,12.80,12.80,12.80,12.80
DaySchedule,DUAL ZONE CONTROL TYPE SCHED_dy_1,CONTROL TYPE,No,Values:,4.00,4.00,4.00,4.00,4.00,4.00,4.00,4.00,4.00,4.00,4.00,4.00,4.00,4.00,4.00,4.00,4.00,4.00,4.00,4.00,4.00,4.00,4.00,4.00
DaySchedule,CW-LOOP-TEMP-SCHEDULE_dy_1,TEMPERATURE,No,Values:,6.70,6.70,6.70,6.70,6.70,6.70,6.70,6.70,6.70,6.70,6.70,6.70,6.70,6.70,6.70,6.70,6.70,6.70,6.70,6.70,6.70,6.70,6.70,6.70
DaySchedule,HW-LOOP-TEMP-SCHEDULE_dy_1,TEMPERATURE,No,Values:,67.00,67.00,67.00,67.00,67.00,67.00,67.00,67.00,67.00,67.00,67.00,67.00,67.00,67.00,67.00,67.00,67.00,67.00,67.00,67.00,67.00,67.00,67.00,67.00
DaySchedule,PLANTONSCHED_dy_1,ANY NUMBER,No,Values:,1.00,1.00,1.00,1.00,1.00,1.00,1.00,1.00,1.00,1.00,1.00,1.00,1.00,1.00,1.00,1.00,1.00,1.00,1.00,1.00,1.00,1.00,1.00,1.00
DaySchedule,KITCHEN_ZN_1_FLR_1_CASE:1_WALKINFREEZER_CASECREDITREDUXSCHED_dy_1,FRACTION,No,Values:,0.20,0.20,0.20,0.20,0.20,0.20,0.20,0.40,0.40,0.40,0.40,0.40,0.40,0.40,0.40,0.40,0.40,0.40,0.40,0.40,0.40,0.20,0.20,0.20
DaySchedule,KITCHEN_ZN_1_FLR_1_CASE:1_WALKINFREEZER_CASEDEFROST2ADAYSCHED_dy_1,ON/OFF,Average,Values:,0.00,0.00,0.00,0.00,0.00,0.00,0.00,0.00,0.00,0.00,0.00,0.00,0.00,0.00,0.00,0.00,0.00,0.00,0.00,0.00,0.00,0.00,0.00,0.00
DaySchedule,KITCHEN_ZN_1_FLR_1_CASE:1_WALKINFREEZER_CASEDRIPDOWN2ADAYSCHED_dy_1,ON/OFF,Average,Values:,0.00,0.00,0.00,0.00,0.00,0.00,0.00,0.00,0.00,0.00,0.00,0.00,0.00,0.00,0.00,0.00,0.00,0.00,0.00,0.00,0.00,0.00,0.00,0.00
DaySchedule,KITCHEN_ZN_1_FLR_1_CASE:1_WALKINFREEZER_WALKINSTOCKINGSCHED_dy_1,ANY NUMBER,No,Values:,0.00,0.00,0.00,0.00,725.00,417.00,290.00,0.00,0.00,0.00,0.00,0.00,0.00,0.00,0.00,0.00,0.00,0.00,0.00,0.00,0.00,0.00,0.00,0.00
DaySchedule,KITCHEN_ZN_1_FLR_1_CASE:1_WALKINFREEZER_WALKINSTOCKINGSCHED_dy_2,ANY NUMBER,No,Values:,0.00,0.00,0.00,0.00,125.00,117.00,90.00,0.00,0.00,0.00,0.00,0.00,0.00,0.00,0.00,0.00,0.00,0.00,0.00,125.00,117.00,90.00,0.00,0.00
DaySchedule,KITCHEN_ZN_1_FLR_1_CASE:2_SELFCONTAINEDDISPLAYCASE_CASESTOCKINGSCHED_dy_1,ANY NUMBER,No,Values:,0.00,0.00,0.00,0.00,0.00,0.00,50.00,70.00,70.00,80.00,70.00,50.00,50.00,80.00,90.00,80.00,0.00,0.00,0.00,0.00,0.00,0.00,0.00,0.00
DaySchedule,BLDG_SWH_SCH_dy_1,FRACTION,No,Values:,5.00E-002,5.00E-002,5.00E-002,5.00E-002,5.00E-002,5.00E-002,5.00E-002,0.10,0.34,0.60,0.63,0.72,0.79,0.83,0.61,0.65,0.10,0.10,0.19,0.25,0.22,0.22,0.12,9.00E-002
DaySchedule,BLDG_SWH_SCH_dy_2,FRACTION,No,Values:,3.00E-002,3.00E-002,3.00E-002,3.00E-002,3.00E-002,3.00E-002,3.00E-002,3.00E-002,3.00E-002,5.00E-002,5.00E-002,5.00E-002,5.00E-002,3.00E-002,3.00E-002,3.00E-002,3.00E-002,3.00E-002,3.00E-002,3.00E-002,3.00E-002,3.00E-002,3.00E-002,3.00E-002
DaySchedule,BLDG_SWH_SCH_dy_3,FRACTION,No,Values:,3.00E-002,3.00E-002,3.00E-002,3.00E-002,3.00E-002,3.00E-002,3.00E-002,3.00E-002,5.00E-002,5.00E-002,5.00E-002,5.00E-002,5.00E-002,5.00E-002,3.00E-002,3.00E-002,3.00E-002,3.00E-002,3.00E-002,3.00E-002,3.00E-002,3.00E-002,3.00E-002,3.00E-002
DaySchedule,BLDG_SWH_SCH_dy_4,FRACTION,No,Values:,5.00E-002,5.00E-002,5.00E-002,5.00E-002,5.00E-002,5.00E-002,5.00E-002,0.10,0.10,0.10,0.10,0.10,0.10,0.10,0.10,0.10,0.10,0.10,0.19,0.25,0.22,0.22,0.12,9.00E-002
DaySchedule,BLDG_SWH_SCH_dy_5,FRACTION,No,Values:,3.00E-002,3.00E-002,3.00E-002,3.00E-002,3.00E-002,3.00E-002,3.00E-002,3.00E-002,3.00E-002,5.00E-002,5.00E-002,5.00E-002,5.00E-002,3.00E-002,3.00E-002,3.00E-002,3.00E-002,3.00E-002,3.00E-002,3.00E-002,3.00E-002,3.00E-002,3.00E-002,3.00E-002
DaySchedule,BLDG_SWH_SCH_dy_6,FRACTION,No,Values:,3.00E-002,3.00E-002,3.00E-002,3.00E-002,3.00E-002,3.00E-002,3.00E-002,3.00E-002,5.00E-002,5.00E-002,5.00E-002,5.00E-002,5.00E-002,5.00E-002,3.00E-002,3.00E-002,3.00E-002,3.00E-002,3.00E-002,3.00E-002,3.00E-002,3.00E-002,3.00E-002,3.00E-002
DaySchedule,BLDG_SWH_SCH_dy_7,FRACTION,No,Values:,5.00E-002,5.00E-002,5.00E-002,5.00E-002,5.00E-002,5.00E-002,5.00E-002,0.10,0.34,0.60,0.63,0.72,0.79,0.83,0.61,0.65,0.10,0.10,0.19,0.25,0.22,0.22,0.12,9.00E-002
DaySchedule,BLDG_SWH_SCH_dy_8,FRACTION,No,Values:,3.00E-002,3.00E-002,3.00E-002,3.00E-002,3.00E-002,3.00E-002,3.00E-002,3.00E-002,3.00E-002,5.00E-002,5.00E-002,5.00E-002,5.00E-002,3.00E-002,3.00E-002,3.00E-002,3.00E-002,3.00E-002,3.00E-002,3.00E-002,3.00E-002,3.00E-002,3.00E-002,3.00E-002
DaySchedule,BLDG_SWH_SCH_dy_9,FRACTION,No,Values:,3.00E-002,3.00E-002,3.00E-002,3.00E-002,3.00E-002,3.00E-002,3.00E-002,3.00E-002,5.00E-002,5.00E-002,5.00E-002,5.00E-002,5.00E-002,5.00E-002,3.00E-002,3.00E-002,3.00E-002,3.00E-002,3.00E-002,3.00E-002,3.00E-002,3.00E-002,3.00E-002,3.00E-002
DaySchedule,SHOWERS_SWH_SCH_dy_1,FRACTION,No,Values:,0.00,0.00,0.00,0.00,0.00,0.00,0.00,0.60,0.50,0.50,0.50,0.50,0.50,0.50,0.50,0.50,1.00,1.00,1.00,0.00,0.00,0.00,0.00,0.00
DaySchedule,SHOWERS_SWH_SCH_dy_2,FRACTION,No,Values:,0.00,0.00,0.00,0.00,0.00,0.00,0.00,0.00,0.00,0.00,0.40,0.14,0.14,0.14,0.14,0.14,0.00,0.00,0.00,0.00,0.00,0.80,0.00,0.00
DaySchedule,SHOWERS_SWH_SCH_dy_3,FRACTION,No,Values:,0.00,0.00,0.00,0.00,0.00,0.00,0.00,0.00,0.00,0.00,0.00,0.00,0.00,0.00,0.00,0.00,0.00,0.00,0.00,0.00,0.00,0.00,0.00,0.00
DaySchedule,SHOWERS_SWH_SCH_dy_4,FRACTION,No,Values:,0.00,0.00,0.00,0.00,0.00,0.00,0.00,0.00,0.30,0.10,0.10,0.10,0.10,0.10,0.10,0.10,0.00,0.00,0.00,0.00,0.00,0.00,0.00,0.00
DaySchedule,SHOWERS_SWH_SCH_dy_5,FRACTION,No,Values:,0.00,0.00,0.00,0.00,0.00,0.00,0.00,0.00,0.00,0.00,0.00,0.00,0.00,0.00,0.00,0.00,0.00,0.00,0.00,0.00,0.00,0.00,0.00,0.00
DaySchedule,SHOWERS_SWH_SCH_dy_6,FRACTION,No,Values:,0.00,0.00,0.00,0.00,0.00,0.00,0.00,0.60,0.50,0.50,0.50,0.50,0.50,0.50,0.50,0.50,1.00,1.00,1.00,0.00,0.00,0.00,0.00,0.00
DaySchedule,SHOWERS_SWH_SCH_dy_7,FRACTION,No,Values:,0.00,0.00,0.00,0.00,0.00,0.00,0.00,0.00,0.00,0.00,0.40,0.14,0.14,0.14,0.14,0.14,0.00,0.00,0.00,0.00,0.00,0.80,0.00,0.00
DaySchedule,SHOWERS_SWH_SCH_dy_8,FRACTION,No,Values:,0.00,0.00,0.00,0.00,0.00,0.00,0.00,0.00,0.00,0.00,0.00,0.00,0.00,0.00,0.00,0.00,0.00,0.00,0.00,0.00,0.00,0.00,0.00,0.00
DaySchedule,LATENT FRACT SCHED_dy_1,FRACTION,No,Values:,5.00E-002,5.00E-002,5.00E-002,5.00E-002,5.00E-002,5.00E-002,5.00E-002,5.00E-002,5.00E-002,5.00E-002,5.00E-002,5.00E-002,5.00E-002,5.00E-002,5.00E-002,5.00E-002,5.00E-002,5.00E-002,5.00E-002,5.00E-002,5.00E-002,5.00E-002,5.00E-002,5.00E-002
DaySchedule,SENSIBLE FRACT SCHED_dy_1,FRACTION,No,Values:,0.20,0.20,0.20,0.20,0.20,0.20,0.20,0.20,0.20,0.20,0.20,0.20,0.20,0.20,0.20,0.20,0.20,0.20,0.20,0.20,0.20,0.20,0.20,0.20
DaySchedule,HOT SUPPLY TEMP SCHED_dy_1,TEMPERATURE,No,Values:,43.30,43.30,43.30,43.30,43.30,43.30,43.30,43.30,43.30,43.30,43.30,43.30,43.30,43.30,43.30,43.30,43.30,43.30,43.30,43.30,43.30,43.30,43.30,43.30
DaySchedule,SHW_DEFAULT TEMP SCHED_dy_1,TEMPERATURE,No,Values:,43.30,43.30,43.30,43.30,43.30,43.30,43.30,43.30,43.30,43.30,43.30,43.30,43.30,43.30,43.30,43.30,43.30,43.30,43.30,43.30,43.30,43.30,43.30,43.30
DaySchedule,KITCHEN HOT SUPPLY TEMP SCHED_dy_1,TEMPERATURE,No,Values:,49.00,49.00,49.00,49.00,49.00,49.00,49.00,49.00,49.00,49.00,49.00,49.00,49.00,49.00,49.00,49.00,49.00,49.00,49.00,49.00,49.00,49.00,49.00,49.00
DaySchedule,SHW_KITCHEN TEMP SCHED_dy_1,TEMPERATURE,No,Values:,49.00,49.00,49.00,49.00,49.00,49.00,49.00,49.00,49.00,49.00,49.00,49.00,49.00,49.00,49.00,49.00,49.00,49.00,49.00,49.00,49.00,49.00,49.00,49.00
DaySchedule,SWHSYS1 WATER HEATER AMBIENT TEMPERATURE SCHEDULE NAME_dy_1,TEMPERATURE,No,Values:,22.00,22.00,22.00,22.00,22.00,22.00,22.00,22.00,22.00,22.00,22.00,22.00,22.00,22.00,22.00,22.00,22.00,22.00,22.00,22.00,22.00,22.00,22.00,22.00
DaySchedule,SWHSYS1 WATER HEATER SETPOINT TEMPERATURE SCHEDULE NAME_dy_1,TEMPERATURE,No,Values:,60.00,60.00,60.00,60.00,60.00,60.00,60.00,60.00,60.00,60.00,60.00,60.00,60.00,60.00,60.00,60.00,60.00,60.00,60.00,60.00,60.00,60.00,60.00,60.00
DaySchedule,SWHSYS1-LOOP-TEMP-SCHEDULE_dy_1,TEMPERATURE,No,Values:,60.00,60.00,60.00,60.00,60.00,60.00,60.00,60.00,60.00,60.00,60.00,60.00,60.00,60.00,60.00,60.00,60.00,60.00,60.00,60.00,60.00,60.00,60.00,60.00
Schedule:Week:Daily,ALWAYS_ON_wk_1,ALWAYS_ON_dy_1,ALWAYS_ON_dy_1,ALWAYS_ON_dy_1,ALWAYS_ON_dy_1,ALWAYS_ON_dy_1,ALWAYS_ON_dy_1,ALWAYS_ON_dy_1,ALWAYS_ON_dy_1,ALWAYS_ON_dy_1,ALWAYS_ON_dy_1,ALWAYS_ON_dy_1,ALWAYS_ON_dy_1
Schedule:Week:Daily,KITCHEN_EXHAUST_SCH_wk_1,KITCHEN_EXHAUST_SCH_dy_2,KITCHEN_EXHAUST_SCH_dy_1,KITCHEN_EXHAUST_SCH_dy_1,KITCHEN_EXHAUST_SCH_dy_1,KITCHEN_EXHAUST_SCH_dy_1,KITCHEN_EXHAUST_SCH_dy_1,KITCHEN_EXHAUST_SCH_dy_2,KITCHEN_EXHAUST_SCH_dy_2,KITCHEN_EXHAUST_SCH_dy_1,KITCHEN_EXHAUST_SCH_dy_2,KITCHEN_EXHAUST_SCH_dy_2,KITCHEN_EXHAUST_SCH_dy_2
Schedule:Week:Daily,BLDG_ELEVATORS_wk_1,BLDG_ELEVATORS_dy_2,BLDG_ELEVATORS_dy_1,BLDG_ELEVATORS_dy_1,BLDG_ELEVATORS_dy_1,BLDG_ELEVATORS_dy_1,BLDG_ELEVATORS_dy_1,BLDG_ELEVATORS_dy_2,BLDG_ELEVATORS_dy_2,BLDG_ELEVATORS_dy_1,BLDG_ELEVATORS_dy_2,BLDG_ELEVATORS_dy_2,BLDG_ELEVATORS_dy_2
Schedule:Week:Daily,BLDG_EQUIP_SCH_wk_1,BLDG_EQUIP_SCH_dy_2,BLDG_EQUIP_SCH_dy_1,BLDG_EQUIP_SCH_dy_1,BLDG_EQUIP_SCH_dy_1,BLDG_EQUIP_SCH_dy_1,BLDG_EQUIP_SCH_dy_1,BLDG_EQUIP_SCH_dy_2,BLDG_EQUIP_SCH_dy_2,BLDG_EQUIP_SCH_dy_1,BLDG_EQUIP_SCH_dy_2,BLDG_EQUIP_SCH_dy_2,BLDG_EQUIP_SCH_dy_2
Schedule:Week:Daily,BLDG_EQUIP_SCH_wk_2,BLDG_EQUIP_SCH_dy_4,BLDG_EQUIP_SCH_dy_3,BLDG_EQUIP_SCH_dy_3,BLDG_EQUIP_SCH_dy_3,BLDG_EQUIP_SCH_dy_3,BLDG_EQUIP_SCH_dy_3,BLDG_EQUIP_SCH_dy_4,BLDG_EQUIP_SCH_dy_4,BLDG_EQUIP_SCH_dy_3,BLDG_EQUIP_SCH_dy_4,BLDG_EQUIP_SCH_dy_4,BLDG_EQUIP_SCH_dy_4
Schedule:Week:Daily,BLDG_EQUIP_SCH_wk_3,BLDG_EQUIP_SCH_dy_6,BLDG_EQUIP_SCH_dy_5,BLDG_EQUIP_SCH_dy_5,BLDG_EQUIP_SCH_dy_5,BLDG_EQUIP_SCH_dy_5,BLDG_EQUIP_SCH_dy_5,BLDG_EQUIP_SCH_dy_6,BLDG_EQUIP_SCH_dy_6,BLDG_EQUIP_SCH_dy_5,BLDG_EQUIP_SCH_dy_6,BLDG_EQUIP_SCH_dy_6,BLDG_EQUIP_SCH_dy_6
Schedule:Week:Daily,BLDG_LIGHT_SCH_wk_1,BLDG_LIGHT_SCH_dy_2,BLDG_LIGHT_SCH_dy_1,BLDG_LIGHT_SCH_dy_1,BLDG_LIGHT_SCH_dy_1,BLDG_LIGHT_SCH_dy_1,BLDG_LIGHT_SCH_dy_1,BLDG_LIGHT_SCH_dy_2,BLDG_LIGHT_SCH_dy_2,BLDG_LIGHT_SCH_dy_1,BLDG_LIGHT_SCH_dy_2,BLDG_LIGHT_SCH_dy_2,BLDG_LIGHT_SCH_dy_2
Schedule:Week:Daily,BLDG_LIGHT_SCH_wk_2,BLDG_LIGHT_SCH_dy_4,BLDG_LIGHT_SCH_dy_3,BLDG_LIGHT_SCH_dy_3,BLDG_LIGHT_SCH_dy_3,BLDG_LIGHT_SCH_dy_3,BLDG_LIGHT_SCH_dy_3,BLDG_LIGHT_SCH_dy_4,BLDG_LIGHT_SCH_dy_4,BLDG_LIGHT_SCH_dy_3,BLDG_LIGHT_SCH_dy_4,BLDG_LIGHT_SCH_dy_4,BLDG_LIGHT_SCH_dy_4
Schedule:Week:Daily,BLDG_LIGHT_SCH_wk_3,BLDG_LIGHT_SCH_dy_6,BLDG_LIGHT_SCH_dy_5,BLDG_LIGHT_SCH_dy_5,BLDG_LIGHT_SCH_dy_5,BLDG_LIGHT_SCH_dy_5,BLDG_LIGHT_SCH_dy_5,BLDG_LIGHT_SCH_dy_6,BLDG_LIGHT_SCH_dy_6,BLDG_LIGHT_SCH_dy_5,BLDG_LIGHT_SCH_dy_6,BLDG_LIGHT_SCH_dy_6,BLDG_LIGHT_SCH_dy_6
Schedule:Week:Daily,BLDG_OCC_SCH_wk_1,BLDG_OCC_SCH_dy_2,BLDG_OCC_SCH_dy_1,BLDG_OCC_SCH_dy_1,BLDG_OCC_SCH_dy_1,BLDG_OCC_SCH_dy_1,BLDG_OCC_SCH_dy_1,BLDG_OCC_SCH_dy_2,BLDG_OCC_SCH_dy_2,BLDG_OCC_SCH_dy_1,BLDG_OCC_SCH_dy_2,BLDG_OCC_SCH_dy_2,BLDG_OCC_SCH_dy_2
Schedule:Week:Daily,BLDG_OCC_SCH_wk_2,BLDG_OCC_SCH_dy_4,BLDG_OCC_SCH_dy_3,BLDG_OCC_SCH_dy_3,BLDG_OCC_SCH_dy_3,BLDG_OCC_SCH_dy_3,BLDG_OCC_SCH_dy_3,BLDG_OCC_SCH_dy_4,BLDG_OCC_SCH_dy_4,BLDG_OCC_SCH_dy_3,BLDG_OCC_SCH_dy_4,BLDG_OCC_SCH_dy_4,BLDG_OCC_SCH_dy_4
Schedule:Week:Daily,BLDG_OCC_SCH_wk_3,BLDG_OCC_SCH_dy_6,BLDG_OCC_SCH_dy_5,BLDG_OCC_SCH_dy_5,BLDG_OCC_SCH_dy_5,BLDG_OCC_SCH_dy_5,BLDG_OCC_SCH_dy_5,BLDG_OCC_SCH_dy_6,BLDG_OCC_SCH_dy_6,BLDG_OCC_SCH_dy_5,BLDG_OCC_SCH_dy_6,BLDG_OCC_SCH_dy_6,BLDG_OCC_SCH_dy_6
Schedule:Week:Daily,BLDG_OCC_SCH_AUDITORIUM_wk_1,BLDG_OCC_SCH_AUDITORIUM_dy_2,BLDG_OCC_SCH_AUDITORIUM_dy_1,BLDG_OCC_SCH_AUDITORIUM_dy_1,BLDG_OCC_SCH_AUDITORIUM_dy_1,BLDG_OCC_SCH_AUDITORIUM_dy_1,BLDG_OCC_SCH_AUDITORIUM_dy_1,BLDG_OCC_SCH_AUDITORIUM_dy_2,BLDG_OCC_SCH_AUDITORIUM_dy_2,BLDG_OCC_SCH_AUDITORIUM_dy_1,BLDG_OCC_SCH_AUDITORIUM_dy_2,BLDG_OCC_SCH_AUDITORIUM_dy_2,BLDG_OCC_SCH_AUDITORIUM_dy_2
Schedule:Week:Daily,BLDG_OCC_SCH_AUDITORIUM_wk_2,BLDG_OCC_SCH_AUDITORIUM_dy_4,BLDG_OCC_SCH_AUDITORIUM_dy_3,BLDG_OCC_SCH_AUDITORIUM_dy_3,BLDG_OCC_SCH_AUDITORIUM_dy_3,BLDG_OCC_SCH_AUDITORIUM_dy_3,BLDG_OCC_SCH_AUDITORIUM_dy_3,BLDG_OCC_SCH_AUDITORIUM_dy_4,BLDG_OCC_SCH_AUDITORIUM_dy_4,BLDG_OCC_SCH_AUDITORIUM_dy_3,BLDG_OCC_SCH_AUDITORIUM_dy_4,BLDG_OCC_SCH_AUDITORIUM_dy_4,BLDG_OCC_SCH_AUDITORIUM_dy_4
Schedule:Week:Daily,BLDG_OCC_SCH_AUDITORIUM_wk_3,BLDG_OCC_SCH_AUDITORIUM_dy_6,BLDG_OCC_SCH_AUDITORIUM_dy_5,BLDG_OCC_SCH_AUDITORIUM_dy_5,BLDG_OCC_SCH_AUDITORIUM_dy_5,BLDG_OCC_SCH_AUDITORIUM_dy_5,BLDG_OCC_SCH_AUDITORIUM_dy_5,BLDG_OCC_SCH_AUDITORIUM_dy_6,BLDG_OCC_SCH_AUDITORIUM_dy_6,BLDG_OCC_SCH_AUDITORIUM_dy_5,BLDG_OCC_SCH_AUDITORIUM_dy_6,BLDG_OCC_SCH_AUDITORIUM_dy_6,BLDG_OCC_SCH_AUDITORIUM_dy_6
Schedule:Week:Daily,BLDG_OCC_SCH_CAFETERIA_wk_1,BLDG_OCC_SCH_CAFETERIA_dy_2,BLDG_OCC_SCH_CAFETERIA_dy_1,BLDG_OCC_SCH_CAFETERIA_dy_1,BLDG_OCC_SCH_CAFETERIA_dy_1,BLDG_OCC_SCH_CAFETERIA_dy_1,BLDG_OCC_SCH_CAFETERIA_dy_1,BLDG_OCC_SCH_CAFETERIA_dy_2,BLDG_OCC_SCH_CAFETERIA_dy_2,BLDG_OCC_SCH_CAFETERIA_dy_1,BLDG_OCC_SCH_CAFETERIA_dy_2,BLDG_OCC_SCH_CAFETERIA_dy_2,BLDG_OCC_SCH_CAFETERIA_dy_2
Schedule:Week:Daily,BLDG_OCC_SCH_CAFETERIA_wk_2,BLDG_OCC_SCH_CAFETERIA_dy_4,BLDG_OCC_SCH_CAFETERIA_dy_3,BLDG_OCC_SCH_CAFETERIA_dy_3,BLDG_OCC_SCH_CAFETERIA_dy_3,BLDG_OCC_SCH_CAFETERIA_dy_3,BLDG_OCC_SCH_CAFETERIA_dy_3,BLDG_OCC_SCH_CAFETERIA_dy_4,BLDG_OCC_SCH_CAFETERIA_dy_4,BLDG_OCC_SCH_CAFETERIA_dy_3,BLDG_OCC_SCH_CAFETERIA_dy_4,BLDG_OCC_SCH_CAFETERIA_dy_4,BLDG_OCC_SCH_CAFETERIA_dy_4
Schedule:Week:Daily,BLDG_OCC_SCH_CAFETERIA_wk_3,BLDG_OCC_SCH_CAFETERIA_dy_6,BLDG_OCC_SCH_CAFETERIA_dy_5,BLDG_OCC_SCH_CAFETERIA_dy_5,BLDG_OCC_SCH_CAFETERIA_dy_5,BLDG_OCC_SCH_CAFETERIA_dy_5,BLDG_OCC_SCH_CAFETERIA_dy_5,BLDG_OCC_SCH_CAFETERIA_dy_6,BLDG_OCC_SCH_CAFETERIA_dy_6,BLDG_OCC_SCH_CAFETERIA_dy_5,BLDG_OCC_SCH_CAFETERIA_dy_6,BLDG_OCC_SCH_CAFETERIA_dy_6,BLDG_OCC_SCH_CAFETERIA_dy_6
Schedule:Week:Daily,BLDG_OCC_SCH_EXTEND_wk_1,BLDG_OCC_SCH_EXTEND_dy_2,BLDG_OCC_SCH_EXTEND_dy_1,BLDG_OCC_SCH_EXTEND_dy_1,BLDG_OCC_SCH_EXTEND_dy_1,BLDG_OCC_SCH_EXTEND_dy_1,BLDG_OCC_SCH_EXTEND_dy_1,BLDG_OCC_SCH_EXTEND_dy_2,BLDG_OCC_SCH_EXTEND_dy_2,BLDG_OCC_SCH_EXTEND_dy_1,BLDG_OCC_SCH_EXTEND_dy_2,BLDG_OCC_SCH_EXTEND_dy_2,BLDG_OCC_SCH_EXTEND_dy_2
Schedule:Week:Daily,BLDG_OCC_SCH_EXTEND_wk_2,BLDG_OCC_SCH_EXTEND_dy_4,BLDG_OCC_SCH_EXTEND_dy_3,BLDG_OCC_SCH_EXTEND_dy_3,BLDG_OCC_SCH_EXTEND_dy_3,BLDG_OCC_SCH_EXTEND_dy_3,BLDG_OCC_SCH_EXTEND_dy_3,BLDG_OCC_SCH_EXTEND_dy_4,BLDG_OCC_SCH_EXTEND_dy_4,BLDG_OCC_SCH_EXTEND_dy_3,BLDG_OCC_SCH_EXTEND_dy_4,BLDG_OCC_SCH_EXTEND_dy_4,BLDG_OCC_SCH_EXTEND_dy_4
Schedule:Week:Daily,BLDG_OCC_SCH_EXTEND_wk_3,BLDG_OCC_SCH_EXTEND_dy_6,BLDG_OCC_SCH_EXTEND_dy_5,BLDG_OCC_SCH_EXTEND_dy_5,BLDG_OCC_SCH_EXTEND_dy_5,BLDG_OCC_SCH_EXTEND_dy_5,BLDG_OCC_SCH_EXTEND_dy_5,BLDG_OCC_SCH_EXTEND_dy_6,BLDG_OCC_SCH_EXTEND_dy_6,BLDG_OCC_SCH_EXTEND_dy_5,BLDG_OCC_SCH_EXTEND_dy_6,BLDG_OCC_SCH_EXTEND_dy_6,BLDG_OCC_SCH_EXTEND_dy_6
Schedule:Week:Daily,BLDG_OCC_SCH_GYM_wk_1,BLDG_OCC_SCH_GYM_dy_2,BLDG_OCC_SCH_GYM_dy_1,BLDG_OCC_SCH_GYM_dy_1,BLDG_OCC_SCH_GYM_dy_1,BLDG_OCC_SCH_GYM_dy_1,BLDG_OCC_SCH_GYM_dy_1,BLDG_OCC_SCH_GYM_dy_2,BLDG_OCC_SCH_GYM_dy_2,BLDG_OCC_SCH_GYM_dy_1,BLDG_OCC_SCH_GYM_dy_2,BLDG_OCC_SCH_GYM_dy_2,BLDG_OCC_SCH_GYM_dy_2
Schedule:Week:Daily,BLDG_OCC_SCH_GYM_wk_2,BLDG_OCC_SCH_GYM_dy_4,BLDG_OCC_SCH_GYM_dy_3,BLDG_OCC_SCH_GYM_dy_3,BLDG_OCC_SCH_GYM_dy_3,BLDG_OCC_SCH_GYM_dy_3,BLDG_OCC_SCH_GYM_dy_3,BLDG_OCC_SCH_GYM_dy_4,BLDG_OCC_SCH_GYM_dy_4,BLDG_OCC_SCH_GYM_dy_3,BLDG_OCC_SCH_GYM_dy_4,BLDG_OCC_SCH_GYM_dy_4,BLDG_OCC_SCH_GYM_dy_4
Schedule:Week:Daily,BLDG_OCC_SCH_GYM_wk_3,BLDG_OCC_SCH_GYM_dy_6,BLDG_OCC_SCH_GYM_dy_5,BLDG_OCC_SCH_GYM_dy_5,BLDG_OCC_SCH_GYM_dy_5,BLDG_OCC_SCH_GYM_dy_5,BLDG_OCC_SCH_GYM_dy_5,BLDG_OCC_SCH_GYM_dy_6,BLDG_OCC_SCH_GYM_dy_6,BLDG_OCC_SCH_GYM_dy_5,BLDG_OCC_SCH_GYM_dy_6,BLDG_OCC_SCH_GYM_dy_6,BLDG_OCC_SCH_GYM_dy_6
Schedule:Week:Daily,BLDG_OCC_SCH_OFFICES_wk_1,BLDG_OCC_SCH_OFFICES_dy_2,BLDG_OCC_SCH_OFFICES_dy_1,BLDG_OCC_SCH_OFFICES_dy_1,BLDG_OCC_SCH_OFFICES_dy_1,BLDG_OCC_SCH_OFFICES_dy_1,BLDG_OCC_SCH_OFFICES_dy_1,BLDG_OCC_SCH_OFFICES_dy_2,BLDG_OCC_SCH_OFFICES_dy_2,BLDG_OCC_SCH_OFFICES_dy_1,BLDG_OCC_SCH_OFFICES_dy_2,BLDG_OCC_SCH_OFFICES_dy_2,BLDG_OCC_SCH_OFFICES_dy_2
Schedule:Week:Daily,BLDG_OCC_SCH_OFFICES_wk_2,BLDG_OCC_SCH_OFFICES_dy_4,BLDG_OCC_SCH_OFFICES_dy_3,BLDG_OCC_SCH_OFFICES_dy_3,BLDG_OCC_SCH_OFFICES_dy_3,BLDG_OCC_SCH_OFFICES_dy_3,BLDG_OCC_SCH_OFFICES_dy_3,BLDG_OCC_SCH_OFFICES_dy_4,BLDG_OCC_SCH_OFFICES_dy_4,BLDG_OCC_SCH_OFFICES_dy_3,BLDG_OCC_SCH_OFFICES_dy_4,BLDG_OCC_SCH_OFFICES_dy_4,BLDG_OCC_SCH_OFFICES_dy_4
Schedule:Week:Daily,BLDG_OCC_SCH_OFFICES_wk_3,BLDG_OCC_SCH_OFFICES_dy_6,BLDG_OCC_SCH_OFFICES_dy_5,BLDG_OCC_SCH_OFFICES_dy_5,BLDG_OCC_SCH_OFFICES_dy_5,BLDG_OCC_SCH_OFFICES_dy_5,BLDG_OCC_SCH_OFFICES_dy_5,BLDG_OCC_SCH_OFFICES_dy_6,BLDG_OCC_SCH_OFFICES_dy_6,BLDG_OCC_SCH_OFFICES_dy_5,BLDG_OCC_SCH_OFFICES_dy_6,BLDG_OCC_SCH_OFFICES_dy_6,BLDG_OCC_SCH_OFFICES_dy_6
Schedule:Week:Daily,KITCHEN_ELEC_EQUIP_SCH_wk_1,KITCHEN_ELEC_EQUIP_SCH_dy_2,KITCHEN_ELEC_EQUIP_SCH_dy_1,KITCHEN_ELEC_EQUIP_SCH_dy_1,KITCHEN_ELEC_EQUIP_SCH_dy_1,KITCHEN_ELEC_EQUIP_SCH_dy_1,KITCHEN_ELEC_EQUIP_SCH_dy_1,KITCHEN_ELEC_EQUIP_SCH_dy_2,KITCHEN_ELEC_EQUIP_SCH_dy_2,KITCHEN_ELEC_EQUIP_SCH_dy_1,KITCHEN_ELEC_EQUIP_SCH_dy_2,KITCHEN_ELEC_EQUIP_SCH_dy_2,KITCHEN_ELEC_EQUIP_SCH_dy_2
Schedule:Week:Daily,KITCHEN_ELEC_EQUIP_SCH_wk_2,KITCHEN_ELEC_EQUIP_SCH_dy_4,KITCHEN_ELEC_EQUIP_SCH_dy_3,KITCHEN_ELEC_EQUIP_SCH_dy_3,KITCHEN_ELEC_EQUIP_SCH_dy_3,KITCHEN_ELEC_EQUIP_SCH_dy_3,KITCHEN_ELEC_EQUIP_SCH_dy_3,KITCHEN_ELEC_EQUIP_SCH_dy_4,KITCHEN_ELEC_EQUIP_SCH_dy_4,KITCHEN_ELEC_EQUIP_SCH_dy_3,KITCHEN_ELEC_EQUIP_SCH_dy_4,KITCHEN_ELEC_EQUIP_SCH_dy_4,KITCHEN_ELEC_EQUIP_SCH_dy_4
Schedule:Week:Daily,KITCHEN_ELEC_EQUIP_SCH_wk_3,KITCHEN_ELEC_EQUIP_SCH_dy_6,KITCHEN_ELEC_EQUIP_SCH_dy_5,KITCHEN_ELEC_EQUIP_SCH_dy_5,KITCHEN_ELEC_EQUIP_SCH_dy_5,KITCHEN_ELEC_EQUIP_SCH_dy_5,KITCHEN_ELEC_EQUIP_SCH_dy_5,KITCHEN_ELEC_EQUIP_SCH_dy_6,KITCHEN_ELEC_EQUIP_SCH_dy_6,KITCHEN_ELEC_EQUIP_SCH_dy_5,KITCHEN_ELEC_EQUIP_SCH_dy_6,KITCHEN_ELEC_EQUIP_SCH_dy_6,KITCHEN_ELEC_EQUIP_SCH_dy_6
Schedule:Week:Daily,KITCHEN_GAS_EQUIP_SCH_wk_1,KITCHEN_GAS_EQUIP_SCH_dy_2,KITCHEN_GAS_EQUIP_SCH_dy_1,KITCHEN_GAS_EQUIP_SCH_dy_1,KITCHEN_GAS_EQUIP_SCH_dy_1,KITCHEN_GAS_EQUIP_SCH_dy_1,KITCHEN_GAS_EQUIP_SCH_dy_1,KITCHEN_GAS_EQUIP_SCH_dy_2,KITCHEN_GAS_EQUIP_SCH_dy_2,KITCHEN_GAS_EQUIP_SCH_dy_1,KITCHEN_GAS_EQUIP_SCH_dy_2,KITCHEN_GAS_EQUIP_SCH_dy_2,KITCHEN_GAS_EQUIP_SCH_dy_2
Schedule:Week:Daily,KITCHEN_GAS_EQUIP_SCH_wk_2,KITCHEN_GAS_EQUIP_SCH_dy_4,KITCHEN_GAS_EQUIP_SCH_dy_3,KITCHEN_GAS_EQUIP_SCH_dy_3,KITCHEN_GAS_EQUIP_SCH_dy_3,KITCHEN_GAS_EQUIP_SCH_dy_3,KITCHEN_GAS_EQUIP_SCH_dy_3,KITCHEN_GAS_EQUIP_SCH_dy_4,KITCHEN_GAS_EQUIP_SCH_dy_4,KITCHEN_GAS_EQUIP_SCH_dy_3,KITCHEN_GAS_EQUIP_SCH_dy_4,KITCHEN_GAS_EQUIP_SCH_dy_4,KITCHEN_GAS_EQUIP_SCH_dy_4
Schedule:Week:Daily,KITCHEN_GAS_EQUIP_SCH_wk_3,KITCHEN_GAS_EQUIP_SCH_dy_6,KITCHEN_GAS_EQUIP_SCH_dy_5,KITCHEN_GAS_EQUIP_SCH_dy_5,KITCHEN_GAS_EQUIP_SCH_dy_5,KITCHEN_GAS_EQUIP_SCH_dy_5,KITCHEN_GAS_EQUIP_SCH_dy_5,KITCHEN_GAS_EQUIP_SCH_dy_6,KITCHEN_GAS_EQUIP_SCH_dy_6,KITCHEN_GAS_EQUIP_SCH_dy_5,KITCHEN_GAS_EQUIP_SCH_dy_6,KITCHEN_GAS_EQUIP_SCH_dy_6,KITCHEN_GAS_EQUIP_SCH_dy_6
Schedule:Week:Daily,INFIL_SCH_wk_1,INFIL_SCH_dy_1,INFIL_SCH_dy_1,INFIL_SCH_dy_1,INFIL_SCH_dy_1,INFIL_SCH_dy_1,INFIL_SCH_dy_1,INFIL_SCH_dy_1,INFIL_SCH_dy_1,INFIL_SCH_dy_1,INFIL_SCH_dy_1,INFIL_SCH_dy_1,INFIL_SCH_dy_1
Schedule:Week:Daily,ACTIVITY_SCH_wk_1,ACTIVITY_SCH_dy_1,ACTIVITY_SCH_dy_1,ACTIVITY_SCH_dy_1,ACTIVITY_SCH_dy_1,ACTIVITY_SCH_dy_1,ACTIVITY_SCH_dy_1,ACTIVITY_SCH_dy_1,ACTIVITY_SCH_dy_1,ACTIVITY_SCH_dy_1,ACTIVITY_SCH_dy_1,ACTIVITY_SCH_dy_1,ACTIVITY_SCH_dy_1
Schedule:Week:Daily,AIR_VELO_SCH_wk_1,AIR_VELO_SCH_dy_1,AIR_VELO_SCH_dy_1,AIR_VELO_SCH_dy_1,AIR_VELO_SCH_dy_1,AIR_VELO_SCH_dy_1,AIR_VELO_SCH_dy_1,AIR_VELO_SCH_dy_1,AIR_VELO_SCH_dy_1,AIR_VELO_SCH_dy_1,AIR_VELO_SCH_dy_1,AIR_VELO_SCH_dy_1,AIR_VELO_SCH_dy_1
Schedule:Week:Daily,CLOTHING_SCH_wk_1,CLOTHING_SCH_dy_1,CLOTHING_SCH_dy_1,CLOTHING_SCH_dy_1,CLOTHING_SCH_dy_1,CLOTHING_SCH_dy_1,CLOTHING_SCH_dy_1,CLOTHING_SCH_dy_1,CLOTHING_SCH_dy_1,CLOTHING_SCH_dy_1,CLOTHING_SCH_dy_1,CLOTHING_SCH_dy_1,CLOTHING_SCH_dy_1
Schedule:Week:Daily,CLOTHING_SCH_wk_2,CLOTHING_SCH_dy_2,CLOTHING_SCH_dy_2,CLOTHING_SCH_dy_2,CLOTHING_SCH_dy_2,CLOTHING_SCH_dy_2,CLOTHING_SCH_dy_2,CLOTHING_SCH_dy_2,CLOTHING_SCH_dy_2,CLOTHING_SCH_dy_2,CLOTHING_SCH_dy_2,CLOTHING_SCH_dy_2,CLOTHING_SCH_dy_2
Schedule:Week:Daily,CLOTHING_SCH_wk_3,CLOTHING_SCH_dy_3,CLOTHING_SCH_dy_3,CLOTHING_SCH_dy_3,CLOTHING_SCH_dy_3,CLOTHING_SCH_dy_3,CLOTHING_SCH_dy_3,CLOTHING_SCH_dy_3,CLOTHING_SCH_dy_3,CLOTHING_SCH_dy_3,CLOTHING_SCH_dy_3,CLOTHING_SCH_dy_3,CLOTHING_SCH_dy_3
Schedule:Week:Daily,WORK_EFF_SCH_wk_1,WORK_EFF_SCH_dy_1,WORK_EFF_SCH_dy_1,WORK_EFF_SCH_dy_1,WORK_EFF_SCH_dy_1,WORK_EFF_SCH_dy_1,WORK_EFF_SCH_dy_1,WORK_EFF_SCH_dy_1,WORK_EFF_SCH_dy_1,WORK_EFF_SCH_dy_1,WORK_EFF_SCH_dy_1,WORK_EFF_SCH_dy_1,WORK_EFF_SCH_dy_1
Schedule:Week:Daily,CLGSETP_SCH_wk_1,CLGSETP_SCH_dy_2,CLGSETP_SCH_dy_3,CLGSETP_SCH_dy_3,CLGSETP_SCH_dy_3,CLGSETP_SCH_dy_3,CLGSETP_SCH_dy_3,CLGSETP_SCH_dy_2,CLGSETP_SCH_dy_2,CLGSETP_SCH_dy_1,CLGSETP_SCH_dy_2,CLGSETP_SCH_dy_3,CLGSETP_SCH_dy_3
Schedule:Week:Daily,CLGSETP_SCH_wk_2,CLGSETP_SCH_dy_5,CLGSETP_SCH_dy_6,CLGSETP_SCH_dy_6,CLGSETP_SCH_dy_6,CLGSETP_SCH_dy_6,CLGSETP_SCH_dy_6,CLGSETP_SCH_dy_5,CLGSETP_SCH_dy_5,CLGSETP_SCH_dy_4,CLGSETP_SCH_dy_5,CLGSETP_SCH_dy_6,CLGSETP_SCH_dy_6
Schedule:Week:Daily,CLGSETP_SCH_wk_3,CLGSETP_SCH_dy_8,CLGSETP_SCH_dy_9,CLGSETP_SCH_dy_9,CLGSETP_SCH_dy_9,CLGSETP_SCH_dy_9,CLGSETP_SCH_dy_9,CLGSETP_SCH_dy_8,CLGSETP_SCH_dy_8,CLGSETP_SCH_dy_7,CLGSETP_SCH_dy_8,CLGSETP_SCH_dy_9,CLGSETP_SCH_dy_9
Schedule:Week:Daily,CLGSETP_SCH_BATHCORRMECHKITCHEN_wk_1,CLGSETP_SCH_BATHCORRMECHKITCHEN_dy_2,CLGSETP_SCH_BATHCORRMECHKITCHEN_dy_2,CLGSETP_SCH_BATHCORRMECHKITCHEN_dy_2,CLGSETP_SCH_BATHCORRMECHKITCHEN_dy_2,CLGSETP_SCH_BATHCORRMECHKITCHEN_dy_2,CLGSETP_SCH_BATHCORRMECHKITCHEN_dy_2,CLGSETP_SCH_BATHCORRMECHKITCHEN_dy_2,CLGSETP_SCH_BATHCORRMECHKITCHEN_dy_2,CLGSETP_SCH_BATHCORRMECHKITCHEN_dy_1,CLGSETP_SCH_BATHCORRMECHKITCHEN_dy_2,CLGSETP_SCH_BATHCORRMECHKITCHEN_dy_2,CLGSETP_SCH_BATHCORRMECHKITCHEN_dy_2
Schedule:Week:Daily,HTGSETP_SCH_wk_1,HTGSETP_SCH_dy_2,HTGSETP_SCH_dy_3,HTGSETP_SCH_dy_3,HTGSETP_SCH_dy_3,HTGSETP_SCH_dy_3,HTGSETP_SCH_dy_3,HTGSETP_SCH_dy_2,HTGSETP_SCH_dy_2,HTGSETP_SCH_dy_2,HTGSETP_SCH_dy_1,HTGSETP_SCH_dy_3,HTGSETP_SCH_dy_3
Schedule:Week:Daily,HTGSETP_SCH_wk_2,HTGSETP_SCH_dy_5,HTGSETP_SCH_dy_6,HTGSETP_SCH_dy_6,HTGSETP_SCH_dy_6,HTGSETP_SCH_dy_6,HTGSETP_SCH_dy_6,HTGSETP_SCH_dy_5,HTGSETP_SCH_dy_5,HTGSETP_SCH_dy_5,HTGSETP_SCH_dy_4,HTGSETP_SCH_dy_6,HTGSETP_SCH_dy_6
Schedule:Week:Daily,HTGSETP_SCH_wk_3,HTGSETP_SCH_dy_8,HTGSETP_SCH_dy_9,HTGSETP_SCH_dy_9,HTGSETP_SCH_dy_9,HTGSETP_SCH_dy_9,HTGSETP_SCH_dy_9,HTGSETP_SCH_dy_8,HTGSETP_SCH_dy_8,HTGSETP_SCH_dy_8,HTGSETP_SCH_dy_7,HTGSETP_SCH_dy_9,HTGSETP_SCH_dy_9
Schedule:Week:Daily,HTGSETP_SCH_BATHCORRMECHKITCHEN_wk_1,HTGSETP_SCH_BATHCORRMECHKITCHEN_dy_2,HTGSETP_SCH_BATHCORRMECHKITCHEN_dy_2,HTGSETP_SCH_BATHCORRMECHKITCHEN_dy_2,HTGSETP_SCH_BATHCORRMECHKITCHEN_dy_2,HTGSETP_SCH_BATHCORRMECHKITCHEN_dy_2,HTGSETP_SCH_BATHCORRMECHKITCHEN_dy_2,HTGSETP_SCH_BATHCORRMECHKITCHEN_dy_2,HTGSETP_SCH_BATHCORRMECHKITCHEN_dy_2,HTGSETP_SCH_BATHCORRMECHKITCHEN_dy_2,HTGSETP_SCH_BATHCORRMECHKITCHEN_dy_1,HTGSETP_SCH_BATHCORRMECHKITCHEN_dy_2,HTGSETP_SCH_BATHCORRMECHKITCHEN_dy_2
Schedule:Week:Daily,HVACOPERATIONSCHD_wk_1,HVACOPERATIONSCHD_dy_2,HVACOPERATIONSCHD_dy_1,HVACOPERATIONSCHD_dy_1,HVACOPERATIONSCHD_dy_1,HVACOPERATIONSCHD_dy_1,HVACOPERATIONSCHD_dy_1,HVACOPERATIONSCHD_dy_2,HVACOPERATIONSCHD_dy_2,HVACOPERATIONSCHD_dy_1,HVACOPERATIONSCHD_dy_2,HVACOPERATIONSCHD_dy_2,HVACOPERATIONSCHD_dy_2
Schedule:Week:Daily,MINOA_SCHED_wk_1,MINOA_SCHED_dy_2,MINOA_SCHED_dy_1,MINOA_SCHED_dy_1,MINOA_SCHED_dy_1,MINOA_SCHED_dy_1,MINOA_SCHED_dy_1,MINOA_SCHED_dy_2,MINOA_SCHED_dy_2,MINOA_SCHED_dy_1,MINOA_SCHED_dy_2,MINOA_SCHED_dy_2,MINOA_SCHED_dy_2
Schedule:Week:Daily,SEASONAL-RESET-SUPPLY-AIR-TEMP-SCH_wk_1,SEASONAL-RESET-SUPPLY-AIR-TEMP-SCH_dy_1,SEASONAL-RESET-SUPPLY-AIR-TEMP-SCH_dy_1,SEASONAL-RESET-SUPPLY-AIR-TEMP-SCH_dy_1,SEASONAL-RESET-SUPPLY-AIR-TEMP-SCH_dy_1,SEASONAL-RESET-SUPPLY-AIR-TEMP-SCH_dy_1,SEASONAL-RESET-SUPPLY-AIR-TEMP-SCH_dy_1,SEASONAL-RESET-SUPPLY-AIR-TEMP-SCH_dy_1,SEASONAL-RESET-SUPPLY-AIR-TEMP-SCH_dy_1,SEASONAL-RESET-SUPPLY-AIR-TEMP-SCH_dy_1,SEASONAL-RESET-SUPPLY-AIR-TEMP-SCH_dy_1,SEASONAL-RESET-SUPPLY-AIR-TEMP-SCH_dy_1,SEASONAL-RESET-SUPPLY-AIR-TEMP-SCH_dy_1
Schedule:Week:Daily,DUAL ZONE CONTROL TYPE SCHED_wk_1,DUAL ZONE CONTROL TYPE SCHED_dy_1,DUAL ZONE CONTROL TYPE SCHED_dy_1,DUAL ZONE CONTROL TYPE SCHED_dy_1,DUAL ZONE CONTROL TYPE SCHED_dy_1,DUAL ZONE CONTROL TYPE SCHED_dy_1,DUAL ZONE CONTROL TYPE SCHED_dy_1,DUAL ZONE CONTROL TYPE SCHED_dy_1,DUAL ZONE CONTROL TYPE SCHED_dy_1,DUAL ZONE CONTROL TYPE SCHED_dy_1,DUAL ZONE CONTROL TYPE SCHED_dy_1,DUAL ZONE CONTROL TYPE SCHED_dy_1,DUAL ZONE CONTROL TYPE SCHED_dy_1
Schedule:Week:Daily,CW-LOOP-TEMP-SCHEDULE_wk_1,CW-LOOP-TEMP-SCHEDULE_dy_1,CW-LOOP-TEMP-SCHEDULE_dy_1,CW-LOOP-TEMP-SCHEDULE_dy_1,CW-LOOP-TEMP-SCHEDULE_dy_1,CW-LOOP-TEMP-SCHEDULE_dy_1,CW-LOOP-TEMP-SCHEDULE_dy_1,CW-LOOP-TEMP-SCHEDULE_dy_1,CW-LOOP-TEMP-SCHEDULE_dy_1,CW-LOOP-TEMP-SCHEDULE_dy_1,CW-LOOP-TEMP-SCHEDULE_dy_1,CW-LOOP-TEMP-SCHEDULE_dy_1,CW-LOOP-TEMP-SCHEDULE_dy_1
Schedule:Week:Daily,HW-LOOP-TEMP-SCHEDULE_wk_1,HW-LOOP-TEMP-SCHEDULE_dy_1,HW-LOOP-TEMP-SCHEDULE_dy_1,HW-LOOP-TEMP-SCHEDULE_dy_1,HW-LOOP-TEMP-SCHEDULE_dy_1,HW-LOOP-TEMP-SCHEDULE_dy_1,HW-LOOP-TEMP-SCHEDULE_dy_1,HW-LOOP-TEMP-SCHEDULE_dy_1,HW-LOOP-TEMP-SCHEDULE_dy_1,HW-LOOP-TEMP-SCHEDULE_dy_1,HW-LOOP-TEMP-SCHEDULE_dy_1,HW-LOOP-TEMP-SCHEDULE_dy_1,HW-LOOP-TEMP-SCHEDULE_dy_1
Schedule:Week:Daily,PLANTONSCHED_wk_1,PLANTONSCHED_dy_1,PLANTONSCHED_dy_1,PLANTONSCHED_dy_1,PLANTONSCHED_dy_1,PLANTONSCHED_dy_1,PLANTONSCHED_dy_1,PLANTONSCHED_dy_1,PLANTONSCHED_dy_1,PLANTONSCHED_dy_1,PLANTONSCHED_dy_1,PLANTONSCHED_dy_1,PLANTONSCHED_dy_1
Schedule:Week:Daily,KITCHEN_ZN_1_FLR_1_CASE:1_WALKINFREEZER_CASECREDITREDUXSCHED_wk_1,KITCHEN_ZN_1_FLR_1_CASE:1_WALKINFREEZER_CASECREDITREDUXSCHED_dy_1,KITCHEN_ZN_1_FLR_1_CASE:1_WALKINFREEZER_CASECREDITREDUXSCHED_dy_1,KITCHEN_ZN_1_FLR_1_CASE:1_WALKINFREEZER_CASECREDITREDUXSCHED_dy_1,KITCHEN_ZN_1_FLR_1_CASE:1_WALKINFREEZER_CASECREDITREDUXSCHED_dy_1,KITCHEN_ZN_1_FLR_1_CASE:1_WALKINFREEZER_CASECREDITREDUXSCHED_dy_1,KITCHEN_ZN_1_FLR_1_CASE:1_WALKINFREEZER_CASECREDITREDUXSCHED_dy_1,KITCHEN_ZN_1_FLR_1_CASE:1_WALKINFREEZER_CASECREDITREDUXSCHED_dy_1,KITCHEN_ZN_1_FLR_1_CASE:1_WALKINFREEZER_CASECREDITREDUXSCHED_dy_1,KITCHEN_ZN_1_FLR_1_CASE:1_WALKINFREEZER_CASECREDITREDUXSCHED_dy_1,KITCHEN_ZN_1_FLR_1_CASE:1_WALKINFREEZER_CASECREDITREDUXSCHED_dy_1,KITCHEN_ZN_1_FLR_1_CASE:1_WALKINFREEZER_CASECREDITREDUXSCHED_dy_1,KITCHEN_ZN_1_FLR_1_CASE:1_WALKINFREEZER_CASECREDITREDUXSCHED_dy_1
Schedule:Week:Daily,KITCHEN_ZN_1_FLR_1_CASE:1_WALKINFREEZER_CASEDEFROST2ADAYSCHED_wk_1,KITCHEN_ZN_1_FLR_1_CASE:1_WALKINFREEZER_CASEDEFROST2ADAYSCHED_dy_1,KITCHEN_ZN_1_FLR_1_CASE:1_WALKINFREEZER_CASEDEFROST2ADAYSCHED_dy_1,KITCHEN_ZN_1_FLR_1_CASE:1_WALKINFREEZER_CASEDEFROST2ADAYSCHED_dy_1,KITCHEN_ZN_1_FLR_1_CASE:1_WALKINFREEZER_CASEDEFROST2ADAYSCHED_dy_1,KITCHEN_ZN_1_FLR_1_CASE:1_WALKINFREEZER_CASEDEFROST2ADAYSCHED_dy_1,KITCHEN_ZN_1_FLR_1_CASE:1_WALKINFREEZER_CASEDEFROST2ADAYSCHED_dy_1,KITCHEN_ZN_1_FLR_1_CASE:1_WALKINFREEZER_CASEDEFROST2ADAYSCHED_dy_1,KITCHEN_ZN_1_FLR_1_CASE:1_WALKINFREEZER_CASEDEFROST2ADAYSCHED_dy_1,KITCHEN_ZN_1_FLR_1_CASE:1_WALKINFREEZER_CASEDEFROST2ADAYSCHED_dy_1,KITCHEN_ZN_1_FLR_1_CASE:1_WALKINFREEZER_CASEDEFROST2ADAYSCHED_dy_1,KITCHEN_ZN_1_FLR_1_CASE:1_WALKINFREEZER_CASEDEFROST2ADAYSCHED_dy_1,KITCHEN_ZN_1_FLR_1_CASE:1_WALKINFREEZER_CASEDEFROST2ADAYSCHED_dy_1
Schedule:Week:Daily,KITCHEN_ZN_1_FLR_1_CASE:1_WALKINFREEZER_CASEDRIPDOWN2ADAYSCHED_wk_1,KITCHEN_ZN_1_FLR_1_CASE:1_WALKINFREEZER_CASEDRIPDOWN2ADAYSCHED_dy_1,KITCHEN_ZN_1_FLR_1_CASE:1_WALKINFREEZER_CASEDRIPDOWN2ADAYSCHED_dy_1,KITCHEN_ZN_1_FLR_1_CASE:1_WALKINFREEZER_CASEDRIPDOWN2ADAYSCHED_dy_1,KITCHEN_ZN_1_FLR_1_CASE:1_WALKINFREEZER_CASEDRIPDOWN2ADAYSCHED_dy_1,KITCHEN_ZN_1_FLR_1_CASE:1_WALKINFREEZER_CASEDRIPDOWN2ADAYSCHED_dy_1,KITCHEN_ZN_1_FLR_1_CASE:1_WALKINFREEZER_CASEDRIPDOWN2ADAYSCHED_dy_1,KITCHEN_ZN_1_FLR_1_CASE:1_WALKINFREEZER_CASEDRIPDOWN2ADAYSCHED_dy_1,KITCHEN_ZN_1_FLR_1_CASE:1_WALKINFREEZER_CASEDRIPDOWN2ADAYSCHED_dy_1,KITCHEN_ZN_1_FLR_1_CASE:1_WALKINFREEZER_CASEDRIPDOWN2ADAYSCHED_dy_1,KITCHEN_ZN_1_FLR_1_CASE:1_WALKINFREEZER_CASEDRIPDOWN2ADAYSCHED_dy_1,KITCHEN_ZN_1_FLR_1_CASE:1_WALKINFREEZER_CASEDRIPDOWN2ADAYSCHED_dy_1,KITCHEN_ZN_1_FLR_1_CASE:1_WALKINFREEZER_CASEDRIPDOWN2ADAYSCHED_dy_1
Schedule:Week:Daily,KITCHEN_ZN_1_FLR_1_CASE:1_WALKINFREEZER_WALKINSTOCKINGSCHED_wk_1,KITCHEN_ZN_1_FLR_1_CASE:1_WALKINFREEZER_WALKINSTOCKINGSCHED_dy_2,KITCHEN_ZN_1_FLR_1_CASE:1_WALKINFREEZER_WALKINSTOCKINGSCHED_dy_2,KITCHEN_ZN_1_FLR_1_CASE:1_WALKINFREEZER_WALKINSTOCKINGSCHED_dy_1,KITCHEN_ZN_1_FLR_1_CASE:1_WALKINFREEZER_WALKINSTOCKINGSCHED_dy_2,KITCHEN_ZN_1_FLR_1_CASE:1_WALKINFREEZER_WALKINSTOCKINGSCHED_dy_2,KITCHEN_ZN_1_FLR_1_CASE:1_WALKINFREEZER_WALKINSTOCKINGSCHED_dy_1,KITCHEN_ZN_1_FLR_1_CASE:1_WALKINFREEZER_WALKINSTOCKINGSCHED_dy_2,KITCHEN_ZN_1_FLR_1_CASE:1_WALKINFREEZER_WALKINSTOCKINGSCHED_dy_2,KITCHEN_ZN_1_FLR_1_CASE:1_WALKINFREEZER_WALKINSTOCKINGSCHED_dy_2,KITCHEN_ZN_1_FLR_1_CASE:1_WALKINFREEZER_WALKINSTOCKINGSCHED_dy_2,KITCHEN_ZN_1_FLR_1_CASE:1_WALKINFREEZER_WALKINSTOCKINGSCHED_dy_2,KITCHEN_ZN_1_FLR_1_CASE:1_WALKINFREEZER_WALKINSTOCKINGSCHED_dy_2
Schedule:Week:Daily,KITCHEN_ZN_1_FLR_1_CASE:2_SELFCONTAINEDDISPLAYCASE_CASESTOCKINGSCHED_wk_1,KITCHEN_ZN_1_FLR_1_CASE:2_SELFCONTAINEDDISPLAYCASE_CASESTOCKINGSCHED_dy_1,KITCHEN_ZN_1_FLR_1_CASE:2_SELFCONTAINEDDISPLAYCASE_CASESTOCKINGSCHED_dy_1,KITCHEN_ZN_1_FLR_1_CASE:2_SELFCONTAINEDDISPLAYCASE_CASESTOCKINGSCHED_dy_1,KITCHEN_ZN_1_FLR_1_CASE:2_SELFCONTAINEDDISPLAYCASE_CASESTOCKINGSCHED_dy_1,KITCHEN_ZN_1_FLR_1_CASE:2_SELFCONTAINEDDISPLAYCASE_CASESTOCKINGSCHED_dy_1,KITCHEN_ZN_1_FLR_1_CASE:2_SELFCONTAINEDDISPLAYCASE_CASESTOCKINGSCHED_dy_1,KITCHEN_ZN_1_FLR_1_CASE:2_SELFCONTAINEDDISPLAYCASE_CASESTOCKINGSCHED_dy_1,KITCHEN_ZN_1_FLR_1_CASE:2_SELFCONTAINEDDISPLAYCASE_CASESTOCKINGSCHED_dy_1,KITCHEN_ZN_1_FLR_1_CASE:2_SELFCONTAINEDDISPLAYCASE_CASESTOCKINGSCHED_dy_1,KITCHEN_ZN_1_FLR_1_CASE:2_SELFCONTAINEDDISPLAYCASE_CASESTOCKINGSCHED_dy_1,KITCHEN_ZN_1_FLR_1_CASE:2_SELFCONTAINEDDISPLAYCASE_CASESTOCKINGSCHED_dy_1,KITCHEN_ZN_1_FLR_1_CASE:2_SELFCONTAINEDDISPLAYCASE_CASESTOCKINGSCHED_dy_1
Schedule:Week:Daily,BLDG_SWH_SCH_wk_1,BLDG_SWH_SCH_dy_3,BLDG_SWH_SCH_dy_1,BLDG_SWH_SCH_dy_1,BLDG_SWH_SCH_dy_1,BLDG_SWH_SCH_dy_1,BLDG_SWH_SCH_dy_1,BLDG_SWH_SCH_dy_2,BLDG_SWH_SCH_dy_3,BLDG_SWH_SCH_dy_1,BLDG_SWH_SCH_dy_2,BLDG_SWH_SCH_dy_3,BLDG_SWH_SCH_dy_3
Schedule:Week:Daily,BLDG_SWH_SCH_wk_2,BLDG_SWH_SCH_dy_6,BLDG_SWH_SCH_dy_4,BLDG_SWH_SCH_dy_4,BLDG_SWH_SCH_dy_4,BLDG_SWH_SCH_dy_4,BLDG_SWH_SCH_dy_4,BLDG_SWH_SCH_dy_5,BLDG_SWH_SCH_dy_6,BLDG_SWH_SCH_dy_4,BLDG_SWH_SCH_dy_5,BLDG_SWH_SCH_dy_6,BLDG_SWH_SCH_dy_6
Schedule:Week:Daily,BLDG_SWH_SCH_wk_3,BLDG_SWH_SCH_dy_9,BLDG_SWH_SCH_dy_7,BLDG_SWH_SCH_dy_7,BLDG_SWH_SCH_dy_7,BLDG_SWH_SCH_dy_7,BLDG_SWH_SCH_dy_7,BLDG_SWH_SCH_dy_8,BLDG_SWH_SCH_dy_9,BLDG_SWH_SCH_dy_7,BLDG_SWH_SCH_dy_8,BLDG_SWH_SCH_dy_9,BLDG_SWH_SCH_dy_9
Schedule:Week:Daily,SHOWERS_SWH_SCH_wk_1,SHOWERS_SWH_SCH_dy_2,SHOWERS_SWH_SCH_dy_1,SHOWERS_SWH_SCH_dy_1,SHOWERS_SWH_SCH_dy_1,SHOWERS_SWH_SCH_dy_1,SHOWERS_SWH_SCH_dy_1,SHOWERS_SWH_SCH_dy_2,SHOWERS_SWH_SCH_dy_3,SHOWERS_SWH_SCH_dy_1,SHOWERS_SWH_SCH_dy_3,SHOWERS_SWH_SCH_dy_3,SHOWERS_SWH_SCH_dy_3
Schedule:Week:Daily,SHOWERS_SWH_SCH_wk_2,SHOWERS_SWH_SCH_dy_5,SHOWERS_SWH_SCH_dy_4,SHOWERS_SWH_SCH_dy_4,SHOWERS_SWH_SCH_dy_4,SHOWERS_SWH_SCH_dy_4,SHOWERS_SWH_SCH_dy_4,SHOWERS_SWH_SCH_dy_5,SHOWERS_SWH_SCH_dy_5,SHOWERS_SWH_SCH_dy_4,SHOWERS_SWH_SCH_dy_5,SHOWERS_SWH_SCH_dy_5,SHOWERS_SWH_SCH_dy_5
Schedule:Week:Daily,SHOWERS_SWH_SCH_wk_3,SHOWERS_SWH_SCH_dy_7,SHOWERS_SWH_SCH_dy_6,SHOWERS_SWH_SCH_dy_6,SHOWERS_SWH_SCH_dy_6,SHOWERS_SWH_SCH_dy_6,SHOWERS_SWH_SCH_dy_6,SHOWERS_SWH_SCH_dy_7,SHOWERS_SWH_SCH_dy_8,SHOWERS_SWH_SCH_dy_6,SHOWERS_SWH_SCH_dy_8,SHOWERS_SWH_SCH_dy_8,SHOWERS_SWH_SCH_dy_8
Schedule:Week:Daily,LATENT FRACT SCHED_wk_1,LATENT FRACT SCHED_dy_1,LATENT FRACT SCHED_dy_1,LATENT FRACT SCHED_dy_1,LATENT FRACT SCHED_dy_1,LATENT FRACT SCHED_dy_1,LATENT FRACT SCHED_dy_1,LATENT FRACT SCHED_dy_1,LATENT FRACT SCHED_dy_1,LATENT FRACT SCHED_dy_1,LATENT FRACT SCHED_dy_1,LATENT FRACT SCHED_dy_1,LATENT FRACT SCHED_dy_1
Schedule:Week:Daily,SENSIBLE FRACT SCHED_wk_1,SENSIBLE FRACT SCHED_dy_1,SENSIBLE FRACT SCHED_dy_1,SENSIBLE FRACT SCHED_dy_1,SENSIBLE FRACT SCHED_dy_1,SENSIBLE FRACT SCHED_dy_1,SENSIBLE FRACT SCHED_dy_1,SENSIBLE FRACT SCHED_dy_1,SENSIBLE FRACT SCHED_dy_1,SENSIBLE FRACT SCHED_dy_1,SENSIBLE FRACT SCHED_dy_1,SENSIBLE FRACT SCHED_dy_1,SENSIBLE FRACT SCHED_dy_1
Schedule:Week:Daily,HOT SUPPLY TEMP SCHED_wk_1,HOT SUPPLY TEMP SCHED_dy_1,HOT SUPPLY TEMP SCHED_dy_1,HOT SUPPLY TEMP SCHED_dy_1,HOT SUPPLY TEMP SCHED_dy_1,HOT SUPPLY TEMP SCHED_dy_1,HOT SUPPLY TEMP SCHED_dy_1,HOT SUPPLY TEMP SCHED_dy_1,HOT SUPPLY TEMP SCHED_dy_1,HOT SUPPLY TEMP SCHED_dy_1,HOT SUPPLY TEMP SCHED_dy_1,HOT SUPPLY TEMP SCHED_dy_1,HOT SUPPLY TEMP SCHED_dy_1
Schedule:Week:Daily,SHW_DEFAULT TEMP SCHED_wk_1,SHW_DEFAULT TEMP SCHED_dy_1,SHW_DEFAULT TEMP SCHED_dy_1,SHW_DEFAULT TEMP SCHED_dy_1,SHW_DEFAULT TEMP SCHED_dy_1,SHW_DEFAULT TEMP SCHED_dy_1,SHW_DEFAULT TEMP SCHED_dy_1,SHW_DEFAULT TEMP SCHED_dy_1,SHW_DEFAULT TEMP SCHED_dy_1,SHW_DEFAULT TEMP SCHED_dy_1,SHW_DEFAULT TEMP SCHED_dy_1,SHW_DEFAULT TEMP SCHED_dy_1,SHW_DEFAULT TEMP SCHED_dy_1
Schedule:Week:Daily,KITCHEN HOT SUPPLY TEMP SCHED_wk_1,KITCHEN HOT SUPPLY TEMP SCHED_dy_1,KITCHEN HOT SUPPLY TEMP SCHED_dy_1,KITCHEN HOT SUPPLY TEMP SCHED_dy_1,KITCHEN HOT SUPPLY TEMP SCHED_dy_1,KITCHEN HOT SUPPLY TEMP SCHED_dy_1,KITCHEN HOT SUPPLY TEMP SCHED_dy_1,KITCHEN HOT SUPPLY TEMP SCHED_dy_1,KITCHEN HOT SUPPLY TEMP SCHED_dy_1,KITCHEN HOT SUPPLY TEMP SCHED_dy_1,KITCHEN HOT SUPPLY TEMP SCHED_dy_1,KITCHEN HOT SUPPLY TEMP SCHED_dy_1,KITCHEN HOT SUPPLY TEMP SCHED_dy_1
Schedule:Week:Daily,SHW_KITCHEN TEMP SCHED_wk_1,SHW_KITCHEN TEMP SCHED_dy_1,SHW_KITCHEN TEMP SCHED_dy_1,SHW_KITCHEN TEMP SCHED_dy_1,SHW_KITCHEN TEMP SCHED_dy_1,SHW_KITCHEN TEMP SCHED_dy_1,SHW_KITCHEN TEMP SCHED_dy_1,SHW_KITCHEN TEMP SCHED_dy_1,SHW_KITCHEN TEMP SCHED_dy_1,SHW_KITCHEN TEMP SCHED_dy_1,SHW_KITCHEN TEMP SCHED_dy_1,SHW_KITCHEN TEMP SCHED_dy_1,SHW_KITCHEN TEMP SCHED_dy_1
Schedule:Week:Daily,SWHSYS1 WATER HEATER AMBIENT TEMPERATURE SCHEDULE NAME_wk_1,SWHSYS1 WATER HEATER AMBIENT TEMPERATURE SCHEDULE NAME_dy_1,SWHSYS1 WATER HEATER AMBIENT TEMPERATURE SCHEDULE NAME_dy_1,SWHSYS1 WATER HEATER AMBIENT TEMPERATURE SCHEDULE NAME_dy_1,SWHSYS1 WATER HEATER AMBIENT TEMPERATURE SCHEDULE NAME_dy_1,SWHSYS1 WATER HEATER AMBIENT TEMPERATURE SCHEDULE NAME_dy_1,SWHSYS1 WATER HEATER AMBIENT TEMPERATURE SCHEDULE NAME_dy_1,SWHSYS1 WATER HEATER AMBIENT TEMPERATURE SCHEDULE NAME_dy_1,SWHSYS1 WATER HEATER AMBIENT TEMPERATURE SCHEDULE NAME_dy_1,SWHSYS1 WATER HEATER AMBIENT TEMPERATURE SCHEDULE NAME_dy_1,SWHSYS1 WATER HEATER AMBIENT TEMPERATURE SCHEDULE NAME_dy_1,SWHSYS1 WATER HEATER AMBIENT TEMPERATURE SCHEDULE NAME_dy_1,SWHSYS1 WATER HEATER AMBIENT TEMPERATURE SCHEDULE NAME_dy_1
Schedule:Week:Daily,SWHSYS1 WATER HEATER SETPOINT TEMPERATURE SCHEDULE NAME_wk_1,SWHSYS1 WATER HEATER SETPOINT TEMPERATURE SCHEDULE NAME_dy_1,SWHSYS1 WATER HEATER SETPOINT TEMPERATURE SCHEDULE NAME_dy_1,SWHSYS1 WATER HEATER SETPOINT TEMPERATURE SCHEDULE NAME_dy_1,SWHSYS1 WATER HEATER SETPOINT TEMPERATURE SCHEDULE NAME_dy_1,SWHSYS1 WATER HEATER SETPOINT TEMPERATURE SCHEDULE NAME_dy_1,SWHSYS1 WATER HEATER SETPOINT TEMPERATURE SCHEDULE NAME_dy_1,SWHSYS1 WATER HEATER SETPOINT TEMPERATURE SCHEDULE NAME_dy_1,SWHSYS1 WATER HEATER SETPOINT TEMPERATURE SCHEDULE NAME_dy_1,SWHSYS1 WATER HEATER SETPOINT TEMPERATURE SCHEDULE NAME_dy_1,SWHSYS1 WATER HEATER SETPOINT TEMPERATURE SCHEDULE NAME_dy_1,SWHSYS1 WATER HEATER SETPOINT TEMPERATURE SCHEDULE NAME_dy_1,SWHSYS1 WATER HEATER SETPOINT TEMPERATURE SCHEDULE NAME_dy_1
Schedule:Week:Daily,SWHSYS1-LOOP-TEMP-SCHEDULE_wk_1,SWHSYS1-LOOP-TEMP-SCHEDULE_dy_1,SWHSYS1-LOOP-TEMP-SCHEDULE_dy_1,SWHSYS1-LOOP-TEMP-SCHEDULE_dy_1,SWHSYS1-LOOP-TEMP-SCHEDULE_dy_1,SWHSYS1-LOOP-TEMP-SCHEDULE_dy_1,SWHSYS1-LOOP-TEMP-SCHEDULE_dy_1,SWHSYS1-LOOP-TEMP-SCHEDULE_dy_1,SWHSYS1-LOOP-TEMP-SCHEDULE_dy_1,SWHSYS1-LOOP-TEMP-SCHEDULE_dy_1,SWHSYS1-LOOP-TEMP-SCHEDULE_dy_1,SWHSYS1-LOOP-TEMP-SCHEDULE_dy_1,SWHSYS1-LOOP-TEMP-SCHEDULE_dy_1
Schedule,ALWAYS_ON,ON/OFF,Through Dec 31,ALWAYS_ON_wk_1
Schedule,KITCHEN_EXHAUST_SCH,FRACTION,Through Dec 31,KITCHEN_EXHAUST_SCH_wk_1
Schedule,BLDG_ELEVATORS,FRACTION,Through Dec 31,BLDG_ELEVATORS_wk_1
Schedule,BLDG_EQUIP_SCH,FRACTION,Through Jun 30,BLDG_EQUIP_SCH_wk_1,Through Sep 01,BLDG_EQUIP_SCH_wk_2,Through Dec 31,BLDG_EQUIP_SCH_wk_3
Schedule,BLDG_LIGHT_SCH,FRACTION,Through Jun 30,BLDG_LIGHT_SCH_wk_1,Through Sep 01,BLDG_LIGHT_SCH_wk_2,Through Dec 31,BLDG_LIGHT_SCH_wk_3
Schedule,BLDG_OCC_SCH,FRACTION,Through Jun 30,BLDG_OCC_SCH_wk_1,Through Sep 01,BLDG_OCC_SCH_wk_2,Through Dec 31,BLDG_OCC_SCH_wk_3
Schedule,BLDG_OCC_SCH_AUDITORIUM,FRACTION,Through Jun 30,BLDG_OCC_SCH_AUDITORIUM_wk_1,Through Sep 01,BLDG_OCC_SCH_AUDITORIUM_wk_2,Through Dec 31,BLDG_OCC_SCH_AUDITORIUM_wk_3
Schedule,BLDG_OCC_SCH_CAFETERIA,FRACTION,Through Jun 30,BLDG_OCC_SCH_CAFETERIA_wk_1,Through Sep 01,BLDG_OCC_SCH_CAFETERIA_wk_2,Through Dec 31,BLDG_OCC_SCH_CAFETERIA_wk_3
Schedule,BLDG_OCC_SCH_EXTEND,FRACTION,Through Jun 30,BLDG_OCC_SCH_EXTEND_wk_1,Through Sep 01,BLDG_OCC_SCH_EXTEND_wk_2,Through Dec 31,BLDG_OCC_SCH_EXTEND_wk_3
Schedule,BLDG_OCC_SCH_GYM,FRACTION,Through Jun 30,BLDG_OCC_SCH_GYM_wk_1,Through Sep 01,BLDG_OCC_SCH_GYM_wk_2,Through Dec 31,BLDG_OCC_SCH_GYM_wk_3
Schedule,BLDG_OCC_SCH_OFFICES,FRACTION,Through Jun 30,BLDG_OCC_SCH_OFFICES_wk_1,Through Sep 01,BLDG_OCC_SCH_OFFICES_wk_2,Through Dec 31,BLDG_OCC_SCH_OFFICES_wk_3
Schedule,KITCHEN_ELEC_EQUIP_SCH,FRACTION,Through Jun 30,KITCHEN_ELEC_EQUIP_SCH_wk_1,Through Sep 01,KITCHEN_ELEC_EQUIP_SCH_wk_2,Through Dec 31,KITCHEN_ELEC_EQUIP_SCH_wk_3
Schedule,KITCHEN_GAS_EQUIP_SCH,FRACTION,Through Jun 30,KITCHEN_GAS_EQUIP_SCH_wk_1,Through Sep 01,KITCHEN_GAS_EQUIP_SCH_wk_2,Through Dec 31,KITCHEN_GAS_EQUIP_SCH_wk_3
Schedule,INFIL_SCH,FRACTION,Through Dec 31,INFIL_SCH_wk_1
Schedule,ACTIVITY_SCH,ANY NUMBER,Through Dec 31,ACTIVITY_SCH_wk_1
Schedule,AIR_VELO_SCH,ANY NUMBER,Through Dec 31,AIR_VELO_SCH_wk_1
Schedule,CLOTHING_SCH,ANY NUMBER,Through Apr 30,CLOTHING_SCH_wk_1,Through Sep 30,CLOTHING_SCH_wk_2,Through Dec 31,CLOTHING_SCH_wk_3
Schedule,WORK_EFF_SCH,FRACTION,Through Dec 31,WORK_EFF_SCH_wk_1
Schedule,CLGSETP_SCH,TEMPERATURE,Through Jun 30,CLGSETP_SCH_wk_1,Through Sep 01,CLGSETP_SCH_wk_2,Through Dec 31,CLGSETP_SCH_wk_3
Schedule,CLGSETP_SCH_BATHCORRMECHKITCHEN,TEMPERATURE,Through Dec 31,CLGSETP_SCH_BATHCORRMECHKITCHEN_wk_1
Schedule,HTGSETP_SCH,TEMPERATURE,Through Jun 30,HTGSETP_SCH_wk_1,Through Sep 01,HTGSETP_SCH_wk_2,Through Dec 31,HTGSETP_SCH_wk_3
Schedule,HTGSETP_SCH_BATHCORRMECHKITCHEN,TEMPERATURE,Through Dec 31,HTGSETP_SCH_BATHCORRMECHKITCHEN_wk_1
Schedule,HVACOPERATIONSCHD,ON/OFF,Through Dec 31,HVACOPERATIONSCHD_wk_1
Schedule,MINOA_SCHED,ON/OFF,Through Dec 31,MINOA_SCHED_wk_1
Schedule,SEASONAL-RESET-SUPPLY-AIR-TEMP-SCH,TEMPERATURE,Through Dec 31,SEASONAL-RESET-SUPPLY-AIR-TEMP-SCH_wk_1
Schedule,DUAL ZONE CONTROL TYPE SCHED,CONTROL TYPE,Through Dec 31,DUAL ZONE CONTROL TYPE SCHED_wk_1
Schedule,CW-LOOP-TEMP-SCHEDULE,TEMPERATURE,Through Dec 31,CW-LOOP-TEMP-SCHEDULE_wk_1
Schedule,HW-LOOP-TEMP-SCHEDULE,TEMPERATURE,Through Dec 31,HW-LOOP-TEMP-SCHEDULE_wk_1
Schedule,PLANTONSCHED,ANY NUMBER,Through Dec 31,PLANTONSCHED_wk_1
Schedule,KITCHEN_ZN_1_FLR_1_CASE:1_WALKINFREEZER_CASECREDITREDUXSCHED,FRACTION,Through Dec 31,KITCHEN_ZN_1_FLR_1_CASE:1_WALKINFREEZER_CASECREDITREDUXSCHED_wk_1
Schedule,KITCHEN_ZN_1_FLR_1_CASE:1_WALKINFREEZER_CASEDEFROST2ADAYSCHED,ON/OFF,Through Dec 31,KITCHEN_ZN_1_FLR_1_CASE:1_WALKINFREEZER_CASEDEFROST2ADAYSCHED_wk_1
Schedule,KITCHEN_ZN_1_FLR_1_CASE:1_WALKINFREEZER_CASEDRIPDOWN2ADAYSCHED,ON/OFF,Through Dec 31,KITCHEN_ZN_1_FLR_1_CASE:1_WALKINFREEZER_CASEDRIPDOWN2ADAYSCHED_wk_1
Schedule,KITCHEN_ZN_1_FLR_1_CASE:1_WALKINFREEZER_WALKINSTOCKINGSCHED,ANY NUMBER,Through Dec 31,KITCHEN_ZN_1_FLR_1_CASE:1_WALKINFREEZER_WALKINSTOCKINGSCHED_wk_1
Schedule,KITCHEN_ZN_1_FLR_1_CASE:2_SELFCONTAINEDDISPLAYCASE_CASESTOCKINGSCHED,ANY NUMBER,Through Dec 31,KITCHEN_ZN_1_FLR_1_CASE:2_SELFCONTAINEDDISPLAYCASE_CASESTOCKINGSCHED_wk_1
Schedule,BLDG_SWH_SCH,FRACTION,Through Jun 15,BLDG_SWH_SCH_wk_1,Through Sep 15,BLDG_SWH_SCH_wk_2,Through Dec 31,BLDG_SWH_SCH_wk_3
Schedule,SHOWERS_SWH_SCH,FRACTION,Through Jun 30,SHOWERS_SWH_SCH_wk_1,Through Sep 01,SHOWERS_SWH_SCH_wk_2,Through Dec 31,SHOWERS_SWH_SCH_wk_3
Schedule,LATENT FRACT SCHED,FRACTION,Through Dec 31,LATENT FRACT SCHED_wk_1
Schedule,SENSIBLE FRACT SCHED,FRACTION,Through Dec 31,SENSIBLE FRACT SCHED_wk_1
Schedule,HOT SUPPLY TEMP SCHED,TEMPERATURE,Through Dec 31,HOT SUPPLY TEMP SCHED_wk_1
Schedule,SHW_DEFAULT TEMP SCHED,TEMPERATURE,Through Dec 31,SHW_DEFAULT TEMP SCHED_wk_1
Schedule,KITCHEN HOT SUPPLY TEMP SCHED,TEMPERATURE,Through Dec 31,KITCHEN HOT SUPPLY TEMP SCHED_wk_1
Schedule,SHW_KITCHEN TEMP SCHED,TEMPERATURE,Through Dec 31,SHW_KITCHEN TEMP SCHED_wk_1
Schedule,SWHSYS1 WATER HEATER AMBIENT TEMPERATURE SCHEDULE NAME,TEMPERATURE,Through Dec 31,SWHSYS1 WATER HEATER AMBIENT TEMPERATURE SCHEDULE NAME_wk_1
Schedule,SWHSYS1 WATER HEATER SETPOINT TEMPERATURE SCHEDULE NAME,TEMPERATURE,Through Dec 31,SWHSYS1 WATER HEATER SETPOINT TEMPERATURE SCHEDULE NAME_wk_1
Schedule,SWHSYS1-LOOP-TEMP-SCHEDULE,TEMPERATURE,Through Dec 31,SWHSYS1-LOOP-TEMP-SCHEDULE_wk_1
! <Building Information>, Building Name,North Axis {deg},Terrain,  Loads Convergence Tolerance Value,Temperature Convergence Tolerance Value,  Solar Distribution,Maximum Number of Warmup Days,Minimum Number of Warmup Days
 Building Information,Ref Bldg Secondary School New2004_v1.3_5.0,0.000,City,4.00000E-002,0.20000,FullInteriorAndExterior,25,6
! <Inside Convection Algorithm>, Algorithm {Simple | TARP | CeilingDiffuser | AdaptiveConvectionAlgorithm}
Inside Convection Algorithm,TARP
! <Outside Convection Algorithm>, Algorithm {SimpleCombined | TARP | MoWitt | DOE-2 | AdaptiveConvectionAlgorithm}
Outside Convection Algorithm,DOE-2
! <Sky Radiance Distribution>, Value {Anisotropic}
Sky Radiance Distribution,Anisotropic
! <Zone Air Solution Algorithm>, Value {ThirdOrderBackwardDifference | AnalyticalSolution | EulerMethod}
 Zone Air Solution Algorithm, AnalyticalSolution
! <Zone Air Carbon Dioxide Balance Simulation>, Simulation {Yes/No}, Carbon Dioxide Concentration
 Zone Air Carbon Dioxide Balance Simulation, No,N/A
! <Zone Air Generic Contaminant Balance Simulation>, Simulation {Yes/No}, Generic Contaminant Concentration
 Zone Air Generic Contaminant Balance Simulation, No,N/A
! <Zone Air Mass Flow Balance Simulation>, Enforce Mass Balance, Adjust Zone Mixing, Adjust Zone Infiltration {AddInfiltration | AdjustInfiltration | None}, Infiltration Zones {MixingSourceZonesOnly | AllZones}
 Zone Air Mass Flow Balance Simulation, No,N/A,N/A,N/A
! <HVACSystemRootFindingAlgorithm>, Value {RegulaFalsi | Bisection | BisectionThenRegulaFalsi | RegulaFalsiThenBisection}
 HVACSystemRootFindingAlgorithm, RegulaFalsi
! <Environment:Site Atmospheric Variation>,Wind Speed Profile Exponent {},Wind Speed Profile Boundary Layer Thickness {m},Air Temperature Gradient Coefficient {K/m}
Environment:Site Atmospheric Variation,0.330,460.000,6.500000E-003
! <Surface Geometry>,Starting Corner,Vertex Input Direction,Coordinate System,Daylight Reference Point Coordinate System,Rectangular (Simple) Surface Coordinate System
 Surface Geometry,UpperLeftCorner,Counterclockwise,RelativeCoordinateSystem,RelativeCoordinateSystem,RelativeToZoneOrigin
! <Surface Heat Transfer Algorithm>, Value {CTF - ConductionTransferFunction | EMPD - MoisturePenetrationDepthConductionTransferFunction | CondFD - ConductionFiniteDifference | HAMT - CombinedHeatAndMoistureFiniteElement} - Description,Inside Surface Max Temperature Limit{C}, Surface Convection Coefficient Lower Limit {W/m2-K}, Surface Convection Coefficient Upper Limit {W/m2-K}
Surface Heat Transfer Algorithm, CTF - ConductionTransferFunction,200,0.10,1000.0
! <Shading Summary>, Number of Fixed Detached Shades, Number of Building Detached Shades, Number of Attached Shades
 Shading Summary,0,0,0
! <Zone Summary>, Number of Zones, Number of Zone Surfaces, Number of SubSurfaces
 Zone Summary,46,527,157
! <Zone Information>,Zone Name,North Axis {deg},Origin X-Coordinate {m},Origin Y-Coordinate {m},Origin Z-Coordinate {m},Centroid X-Coordinate {m},Centroid Y-Coordinate {m},Centroid Z-Coordinate {m},Type,Zone Multiplier,Zone List Multiplier,Minimum X {m},Maximum X {m},Minimum Y {m},Maximum Y {m},Minimum Z {m},Maximum Z {m},Ceiling Height {m},Volume {m3},Zone Inside Convection Algorithm {Simple-Detailed-CeilingDiffuser-TrombeWall},Zone Outside Convection Algorithm {Simple-Detailed-Tarp-MoWitt-DOE-2-BLAST}, Floor Area {m2},Exterior Gross Wall Area {m2},Exterior Net Wall Area {m2},Exterior Window Area {m2}, Number of Surfaces, Number of SubSurfaces, Number of Shading SubSurfaces,  Part of Total Building Area
 Zone Information, AUDITORIUM_ZN_1_FLR_1,0.0,79.00,75.00,0.00,98.00,88.00,4.00,1,1,1,79.00,117.00,75.00,101.00,0.00,8.00,8.00,7904.00,TARP,DOE-2,988.00,512.00,405.60,106.40,10,2,0,Yes
 Zone Information, AUX_GYM_ZN_1_FLR_1,0.0,117.00,14.00,0.00,129.00,40.00,4.00,1,1,1,117.00,141.00,14.00,66.00,0.00,8.00,8.00,9984.00,TARP,DOE-2,1248.00,608.00,395.20,266.35,10,40,0,Yes
 Zone Information, BATHROOMS_ZN_1_FLR_1,0.0,64.00,90.00,0.00,71.50,97.00,2.00,1,1,1,64.00,79.00,90.00,104.00,0.00,4.00,4.00,840.00,TARP,DOE-2,210.00,116.00,90.80,25.20,8,2,0,Yes
 Zone Information, BATHROOMS_ZN_1_FLR_2,0.0,64.00,90.00,4.00,71.50,97.00,6.00,1,1,1,64.00,79.00,90.00,104.00,4.00,8.00,4.00,840.00,TARP,DOE-2,210.00,116.00,90.80,25.20,8,2,0,Yes
 Zone Information, CAFETERIA_ZN_1_FLR_1,0.0,117.00,75.00,0.00,129.00,88.00,2.00,1,1,1,117.00,141.00,75.00,101.00,0.00,4.00,4.00,2496.00,TARP,DOE-2,624.00,200.00,130.00,70.00,6,2,0,Yes
 Zone Information, CORNER_CLASS_1_POD_1_ZN_1_FLR_1,0.0,0.00,0.00,0.00,5.50,4.50,2.00,1,1,1,0.00,11.00,0.00,9.00,0.00,4.00,4.00,396.00,TARP,DOE-2,99.00,80.00,52.00,28.00,6,2,0,Yes
 Zone Information, CORNER_CLASS_1_POD_1_ZN_1_FLR_2,0.0,0.00,0.00,4.00,5.50,4.50,6.00,1,1,1,0.00,11.00,0.00,9.00,4.00,8.00,4.00,396.00,TARP,DOE-2,99.00,80.00,52.00,28.00,6,2,0,Yes
 Zone Information, CORNER_CLASS_1_POD_2_ZN_1_FLR_1,0.0,0.00,40.00,0.00,5.50,44.50,2.00,1,1,1,0.00,11.00,40.00,49.00,0.00,4.00,4.00,396.00,TARP,DOE-2,99.00,80.00,52.00,28.00,6,2,0,Yes
 Zone Information, CORNER_CLASS_1_POD_2_ZN_1_FLR_2,0.0,0.00,40.00,4.00,5.50,44.50,6.00,1,1,1,0.00,11.00,40.00,49.00,4.00,8.00,4.00,396.00,TARP,DOE-2,99.00,80.00,52.00,28.00,6,2,0,Yes
 Zone Information, CORNER_CLASS_1_POD_3_ZN_1_FLR_1,0.0,0.00,81.00,0.00,5.50,85.50,2.00,1,1,1,0.00,11.00,81.00,90.00,0.00,4.00,4.00,396.00,TARP,DOE-2,99.00,80.00,52.00,28.00,6,2,0,Yes
 Zone Information, CORNER_CLASS_1_POD_3_ZN_1_FLR_2,0.0,0.00,81.00,4.00,5.50,85.50,6.00,1,1,1,0.00,11.00,81.00,90.00,4.00,8.00,4.00,396.00,TARP,DOE-2,99.00,80.00,52.00,28.00,6,2,0,Yes
 Zone Information, CORNER_CLASS_2_POD_1_ZN_1_FLR_1,0.0,0.00,14.00,0.00,5.50,18.50,2.00,1,1,1,0.00,11.00,14.00,23.00,0.00,4.00,4.00,396.00,TARP,DOE-2,99.00,80.00,52.00,28.00,6,2,0,Yes
 Zone Information, CORNER_CLASS_2_POD_1_ZN_1_FLR_2,0.0,0.00,14.00,4.00,5.50,18.50,6.00,1,1,1,0.00,11.00,14.00,23.00,4.00,8.00,4.00,396.00,TARP,DOE-2,99.00,80.00,52.00,28.00,6,2,0,Yes
 Zone Information, CORNER_CLASS_2_POD_2_ZN_1_FLR_1,0.0,0.00,54.00,0.00,5.50,58.50,2.00,1,1,1,0.00,11.00,54.00,63.00,0.00,4.00,4.00,396.00,TARP,DOE-2,99.00,80.00,52.00,28.00,6,2,0,Yes
 Zone Information, CORNER_CLASS_2_POD_2_ZN_1_FLR_2,0.0,0.00,54.00,4.00,5.50,58.50,6.00,1,1,1,0.00,11.00,54.00,63.00,4.00,8.00,4.00,396.00,TARP,DOE-2,99.00,80.00,52.00,28.00,6,2,0,Yes
 Zone Information, CORNER_CLASS_2_POD_3_ZN_1_FLR_1,0.0,0.00,95.00,0.00,5.50,99.50,2.00,1,1,1,0.00,11.00,95.00,104.00,0.00,4.00,4.00,396.00,TARP,DOE-2,99.00,80.00,52.00,28.00,6,2,0,Yes
 Zone Information, CORNER_CLASS_2_POD_3_ZN_1_FLR_2,0.0,0.00,95.00,4.00,5.50,99.50,6.00,1,1,1,0.00,11.00,95.00,104.00,4.00,8.00,4.00,396.00,TARP,DOE-2,99.00,80.00,52.00,28.00,6,2,0,Yes
 Zone Information, CORRIDOR_POD_1_ZN_1_FLR_1,0.0,0.00,9.00,0.00,32.00,11.50,2.00,1,1,1,0.00,64.00,9.00,14.00,0.00,4.00,4.00,1280.00,TARP,DOE-2,320.00,20.00,13.00,7.00,8,1,0,Yes
 Zone Information, CORRIDOR_POD_1_ZN_1_FLR_2,0.0,0.00,9.00,4.00,32.00,11.50,6.00,1,1,1,0.00,64.00,9.00,14.00,4.00,8.00,4.00,1280.00,TARP,DOE-2,320.00,20.00,13.00,7.00,8,1,0,Yes
 Zone Information, CORRIDOR_POD_2_ZN_1_FLR_1,0.0,0.00,49.00,0.00,32.00,51.50,2.00,1,1,1,0.00,64.00,49.00,54.00,0.00,4.00,4.00,1280.00,TARP,DOE-2,320.00,20.00,13.00,7.00,8,1,0,Yes
 Zone Information, CORRIDOR_POD_2_ZN_1_FLR_2,0.0,0.00,49.00,4.00,32.00,51.50,6.00,1,1,1,0.00,64.00,49.00,54.00,4.00,8.00,4.00,1280.00,TARP,DOE-2,320.00,20.00,13.00,7.00,8,1,0,Yes
 Zone Information, CORRIDOR_POD_3_ZN_1_FLR_1,0.0,0.00,90.00,0.00,32.00,92.50,2.00,1,1,1,0.00,64.00,90.00,95.00,0.00,4.00,4.00,1280.00,TARP,DOE-2,320.00,20.00,13.00,7.00,8,1,0,Yes
 Zone Information, CORRIDOR_POD_3_ZN_1_FLR_2,0.0,0.00,90.00,4.00,32.00,92.50,6.00,1,1,1,0.00,64.00,90.00,95.00,4.00,8.00,4.00,1280.00,TARP,DOE-2,320.00,20.00,13.00,7.00,8,1,0,Yes
 Zone Information, GYM_ZN_1_FLR_1,0.0,79.00,14.00,0.00,98.00,40.00,4.00,1,1,1,79.00,117.00,14.00,66.00,0.00,8.00,8.00,15808.00,TARP,DOE-2,1976.00,0.00,0.00,80.28,10,54,0,Yes
 Zone Information, KITCHEN_ZN_1_FLR_1,0.0,117.00,66.00,0.00,129.00,70.50,2.00,1,1,1,117.00,141.00,66.00,75.00,0.00,4.00,4.00,864.00,TARP,DOE-2,216.00,36.00,23.40,12.60,6,1,0,Yes
 Zone Information, LIBRARY_MEDIA_CENTER_ZN_1_FLR_2,0.0,117.00,66.00,4.00,129.00,83.50,6.00,1,1,1,117.00,141.00,66.00,101.00,4.00,8.00,4.00,3360.00,TARP,DOE-2,840.00,236.00,152.99,83.01,8,2,0,Yes
 Zone Information, LOBBY_ZN_1_FLR_1,0.0,64.00,0.00,0.00,71.50,7.00,2.00,1,1,1,64.00,79.00,0.00,14.00,0.00,4.00,4.00,840.00,TARP,DOE-2,210.00,60.00,39.00,21.00,7,1,0,Yes
 Zone Information, LOBBY_ZN_1_FLR_2,0.0,64.00,0.00,4.00,71.50,7.00,6.00,1,1,1,64.00,79.00,0.00,14.00,4.00,8.00,4.00,840.00,TARP,DOE-2,210.00,60.00,39.00,21.00,7,1,0,Yes
 Zone Information, MAIN_CORRIDOR_ZN_1_FLR_1,0.0,64.00,14.00,0.00,71.50,52.00,2.00,1,1,1,64.00,79.00,14.00,90.00,0.00,4.00,4.00,4560.00,TARP,DOE-2,1140.00,200.00,151.00,49.00,14,2,0,Yes
 Zone Information, MAIN_CORRIDOR_ZN_1_FLR_2,0.0,64.00,14.00,4.00,71.50,52.00,6.00,1,1,1,64.00,79.00,14.00,90.00,4.00,8.00,4.00,4560.00,TARP,DOE-2,1140.00,200.00,151.00,49.00,14,2,0,Yes
 Zone Information, MECH_ZN_1_FLR_1,0.0,79.00,66.00,0.00,98.00,70.50,2.00,1,1,1,79.00,117.00,66.00,75.00,0.00,4.00,4.00,1368.00,TARP,DOE-2,342.00,0.00,0.00,0.00,6,0,0,Yes
 Zone Information, MECH_ZN_1_FLR_2,0.0,79.00,66.00,4.00,98.00,70.50,6.00,1,1,1,79.00,117.00,66.00,75.00,4.00,8.00,4.00,1368.00,TARP,DOE-2,342.00,0.00,0.00,0.00,6,0,0,Yes
 Zone Information, MULT_CLASS_1_POD_1_ZN_1_FLR_1,0.0,11.00,0.00,0.00,37.50,4.50,2.00,1,1,1,11.00,64.00,0.00,9.00,0.00,4.00,4.00,1908.00,TARP,DOE-2,477.00,212.00,137.80,74.20,6,1,0,Yes
 Zone Information, MULT_CLASS_1_POD_1_ZN_1_FLR_2,0.0,11.00,0.00,4.00,37.50,4.50,6.00,1,1,1,11.00,64.00,0.00,9.00,4.00,8.00,4.00,1908.00,TARP,DOE-2,477.00,212.00,137.80,74.20,6,1,0,Yes
 Zone Information, MULT_CLASS_1_POD_2_ZN_1_FLR_1,0.0,11.00,40.00,0.00,37.50,44.50,2.00,1,1,1,11.00,64.00,40.00,49.00,0.00,4.00,4.00,1908.00,TARP,DOE-2,477.00,212.00,137.80,74.20,6,1,0,Yes
 Zone Information, MULT_CLASS_1_POD_2_ZN_1_FLR_2,0.0,11.00,40.00,4.00,37.50,44.50,6.00,1,1,1,11.00,64.00,40.00,49.00,4.00,8.00,4.00,1908.00,TARP,DOE-2,477.00,212.00,137.80,74.20,6,1,0,Yes
 Zone Information, MULT_CLASS_1_POD_3_ZN_1_FLR_1,0.0,11.00,81.00,0.00,37.50,85.50,2.00,1,1,1,11.00,64.00,81.00,90.00,0.00,4.00,4.00,1908.00,TARP,DOE-2,477.00,212.00,137.80,74.20,6,1,0,Yes
 Zone Information, MULT_CLASS_1_POD_3_ZN_1_FLR_2,0.0,11.00,81.00,4.00,37.50,85.50,6.00,1,1,1,11.00,64.00,81.00,90.00,4.00,8.00,4.00,1908.00,TARP,DOE-2,477.00,212.00,137.80,74.20,6,1,0,Yes
 Zone Information, MULT_CLASS_2_POD_1_ZN_1_FLR_1,0.0,11.00,14.00,0.00,37.50,18.50,2.00,1,1,1,11.00,64.00,14.00,23.00,0.00,4.00,4.00,1908.00,TARP,DOE-2,477.00,212.00,137.80,74.20,6,1,0,Yes
 Zone Information, MULT_CLASS_2_POD_1_ZN_1_FLR_2,0.0,11.00,14.00,4.00,37.50,18.50,6.00,1,1,1,11.00,64.00,14.00,23.00,4.00,8.00,4.00,1908.00,TARP,DOE-2,477.00,212.00,137.80,74.20,6,1,0,Yes
 Zone Information, MULT_CLASS_2_POD_2_ZN_1_FLR_1,0.0,11.00,54.00,0.00,37.50,58.50,2.00,1,1,1,11.00,64.00,54.00,63.00,0.00,4.00,4.00,1908.00,TARP,DOE-2,477.00,212.00,137.80,74.20,6,1,0,Yes
 Zone Information, MULT_CLASS_2_POD_2_ZN_1_FLR_2,0.0,11.00,54.00,4.00,37.50,58.50,6.00,1,1,1,11.00,64.00,54.00,63.00,4.00,8.00,4.00,1908.00,TARP,DOE-2,477.00,212.00,137.80,74.20,6,1,0,Yes
 Zone Information, MULT_CLASS_2_POD_3_ZN_1_FLR_1,0.0,11.00,95.00,0.00,37.50,99.50,2.00,1,1,1,11.00,64.00,95.00,104.00,0.00,4.00,4.00,1908.00,TARP,DOE-2,477.00,212.00,137.80,74.20,6,1,0,Yes
 Zone Information, MULT_CLASS_2_POD_3_ZN_1_FLR_2,0.0,11.00,95.00,4.00,37.50,99.50,6.00,1,1,1,11.00,64.00,95.00,104.00,4.00,8.00,4.00,1908.00,TARP,DOE-2,477.00,212.00,137.80,74.20,6,1,0,Yes
 Zone Information, OFFICES_ZN_1_FLR_1,0.0,79.00,0.00,0.00,98.00,7.00,2.00,1,1,1,79.00,117.00,0.00,14.00,0.00,4.00,4.00,2128.00,TARP,DOE-2,532.00,208.00,135.20,72.80,6,2,0,Yes
 Zone Information, OFFICES_ZN_1_FLR_2,0.0,79.00,0.00,4.00,98.00,7.00,6.00,1,1,1,79.00,117.00,0.00,14.00,4.00,8.00,4.00,2128.00,TARP,DOE-2,532.00,208.00,135.20,72.80,6,2,0,Yes
! <Zone Internal Gains Nominal>,Zone Name, Floor Area {m2},# Occupants,Area per Occupant {m2/person},Occupant per Area {person/m2},Interior Lighting {W/m2},Electric Load {W/m2},Gas Load {W/m2},Other Load {W/m2},Hot Water Eq {W/m2},Steam Equipment {W/m2},Sum Loads per Area {W/m2},Outdoor Controlled Baseboard Heat
 Zone Internal Gains Nominal, AUDITORIUM_ZN_1_FLR_1,988.00,988.0,1.000,1.000,9.680,5.000,0.000,0.000,0.000,0.000,14.680,No
 Zone Internal Gains Nominal, AUX_GYM_ZN_1_FLR_1,1248.00,374.8,3.330,0.300,15.060,5.000,0.000,0.000,0.000,0.000,20.060,No
 Zone Internal Gains Nominal, BATHROOMS_ZN_1_FLR_1,210.00,21.0,10.000,0.100,9.680,4.000,0.000,0.000,0.000,0.000,13.680,No
 Zone Internal Gains Nominal, BATHROOMS_ZN_1_FLR_2,210.00,21.0,10.000,0.100,9.680,4.000,0.000,0.000,0.000,0.000,13.680,No
 Zone Internal Gains Nominal, CAFETERIA_ZN_1_FLR_1,624.00,448.9,1.390,0.719,15.060,19.260,0.000,0.000,0.000,0.000,34.320,No
 Zone Internal Gains Nominal, CORNER_CLASS_1_POD_1_ZN_1_FLR_1,99.00,24.8,4.000,0.250,15.060,10.000,0.000,0.000,0.000,0.000,25.060,No
 Zone Internal Gains Nominal, CORNER_CLASS_1_POD_1_ZN_1_FLR_2,99.00,24.8,4.000,0.250,15.060,10.000,0.000,0.000,0.000,0.000,25.060,No
 Zone Internal Gains Nominal, CORNER_CLASS_1_POD_2_ZN_1_FLR_1,99.00,24.8,4.000,0.250,15.060,10.000,0.000,0.000,0.000,0.000,25.060,No
 Zone Internal Gains Nominal, CORNER_CLASS_1_POD_2_ZN_1_FLR_2,99.00,24.8,4.000,0.250,15.060,10.000,0.000,0.000,0.000,0.000,25.060,No
 Zone Internal Gains Nominal, CORNER_CLASS_1_POD_3_ZN_1_FLR_1,99.00,24.8,4.000,0.250,15.060,10.000,0.000,0.000,0.000,0.000,25.060,No
 Zone Internal Gains Nominal, CORNER_CLASS_1_POD_3_ZN_1_FLR_2,99.00,24.8,4.000,0.250,15.060,10.000,0.000,0.000,0.000,0.000,25.060,No
 Zone Internal Gains Nominal, CORNER_CLASS_2_POD_1_ZN_1_FLR_1,99.00,24.8,4.000,0.250,15.060,10.000,0.000,0.000,0.000,0.000,25.060,No
 Zone Internal Gains Nominal, CORNER_CLASS_2_POD_1_ZN_1_FLR_2,99.00,24.8,4.000,0.250,15.060,10.000,0.000,0.000,0.000,0.000,25.060,No
 Zone Internal Gains Nominal, CORNER_CLASS_2_POD_2_ZN_1_FLR_1,99.00,24.8,4.000,0.250,15.060,10.000,0.000,0.000,0.000,0.000,25.060,No
 Zone Internal Gains Nominal, CORNER_CLASS_2_POD_2_ZN_1_FLR_2,99.00,24.8,4.000,0.250,15.060,10.000,0.000,0.000,0.000,0.000,25.060,No
 Zone Internal Gains Nominal, CORNER_CLASS_2_POD_3_ZN_1_FLR_1,99.00,24.8,4.000,0.250,15.060,10.000,0.000,0.000,0.000,0.000,25.060,No
 Zone Internal Gains Nominal, CORNER_CLASS_2_POD_3_ZN_1_FLR_2,99.00,24.8,4.000,0.250,15.060,10.000,0.000,0.000,0.000,0.000,25.060,No
 Zone Internal Gains Nominal, CORRIDOR_POD_1_ZN_1_FLR_1,320.00,32.0,10.000,0.100,15.060,4.000,0.000,0.000,0.000,0.000,19.060,No
 Zone Internal Gains Nominal, CORRIDOR_POD_1_ZN_1_FLR_2,320.00,32.0,10.000,0.100,5.380,4.000,0.000,0.000,0.000,0.000,9.380,No
 Zone Internal Gains Nominal, CORRIDOR_POD_2_ZN_1_FLR_1,320.00,32.0,10.000,0.100,5.380,4.000,0.000,0.000,0.000,0.000,9.380,No
 Zone Internal Gains Nominal, CORRIDOR_POD_2_ZN_1_FLR_2,320.00,32.0,10.000,0.100,5.380,4.000,0.000,0.000,0.000,0.000,9.380,No
 Zone Internal Gains Nominal, CORRIDOR_POD_3_ZN_1_FLR_1,320.00,32.0,10.000,0.100,5.380,4.000,0.000,0.000,0.000,0.000,9.380,No
 Zone Internal Gains Nominal, CORRIDOR_POD_3_ZN_1_FLR_2,320.00,32.0,10.000,0.100,5.380,4.000,0.000,0.000,0.000,0.000,9.380,No
[...]
 Component Sizing Information, Coil:Cooling:Water, VAV_OTHER_COOLC, Design Size Design Water Flow Rate [m3/s], 1.35259E-002
 Component Sizing Information, Coil:Cooling:Water, VAV_OTHER_COOLC, Design Size Design Air Flow Rate [m3/s], 12.43741
! <Water Cooling Coil Capacity Information>,Component Type,Name,Nominal Total Capacity {W},Nominal Sensible Capacity {W},Nominal Latent Capacity {W},Nominal Sensible Heat Ratio, Nominal Coil UA Value {W/C}, Nominal Coil Surface Area {m2}
Water Cooling Coil Capacity Information,Coil:Cooling:Water,VAV_OTHER_COOLC,375618.29,244133.88,131484.41,0.65,50654.94,513.77
 Component Sizing Information, Coil:Heating:Water, VAV_OTHER_HEATC, Design Size Rated Capacity [W], 164448.45842
 Component Sizing Information, Coil:Heating:Water, VAV_OTHER_HEATC, Design Size Maximum Water Flow Rate [m3/s], 3.60056E-003
 Component Sizing Information, Coil:Heating:Water, VAV_OTHER_HEATC, Design Size U-Factor Times Area Value [W/K], 2160.47543
Water Heating Coil Capacity Information,Coil:Heating:Water,VAV_OTHER_HEATC,105264.53
 Component Sizing Information, Fan:VariableVolume, VAV_OTHER_FAN, Design Size Maximum Flow Rate [m3/s], 12.43741
 Component Sizing Information, Controller:WaterCoil, VAV_OTHER_COOLC_CONTROLLER, Maximum Actuated Flow [m3/s], 1.35259E-002
 Component Sizing Information, Controller:WaterCoil, VAV_OTHER_COOLC_CONTROLLER, Controller Convergence Tolerance, 3.52058E-005
 Component Sizing Information, Controller:WaterCoil, VAV_OTHER_HEATC_CONTROLLER, Maximum Actuated Flow [m3/s], 3.60056E-003
 Component Sizing Information, Controller:OutdoorAir, VAV_POD_1_OA_CONTROLLER, Maximum Outdoor Air Flow Rate [m3/s], 8.05263
 Component Sizing Information, Controller:OutdoorAir, VAV_POD_1_OA_CONTROLLER, Minimum Outdoor Air Flow Rate [m3/s], 4.92800
 Component Sizing Information, Coil:Cooling:Water, VAV_POD_1_COOLC, Design Size Design Inlet Air Temperature [C], 27.73895
 Component Sizing Information, Coil:Cooling:Water, VAV_POD_1_COOLC, Design Size Design Inlet Water Temperature [C], 6.67000
 Component Sizing Information, Coil:Cooling:Water, VAV_POD_1_COOLC, Design Size Design Outlet Air Temperature [C], 11.40490
 Component Sizing Information, Coil:Cooling:Water, VAV_POD_1_COOLC, Design Size Design Inlet Air Humidity Ratio, 1.50438E-002
 Component Sizing Information, Coil:Cooling:Water, VAV_POD_1_COOLC, Design Size Design Outlet Air Humidity Ratio, 8.50000E-003
 Component Sizing Information, Coil:Cooling:Water, VAV_POD_1_COOLC, Design Size Design Coil Load [W], 316018.69500
 Component Sizing Information, Coil:Cooling:Water, VAV_POD_1_COOLC, Design Size Design Water Flow Rate [m3/s], 1.12875E-002
 Component Sizing Information, Coil:Cooling:Water, VAV_POD_1_COOLC, Design Size Design Air Flow Rate [m3/s], 8.05263
Water Cooling Coil Capacity Information,Coil:Cooling:Water,VAV_POD_1_COOLC,261637.81,166363.50,95274.31,0.64,35622.02,361.30
 Component Sizing Information, Coil:Heating:Water, VAV_POD_1_HEATC, Design Size Rated Capacity [W], 106472.49442
 Component Sizing Information, Coil:Heating:Water, VAV_POD_1_HEATC, Design Size Maximum Water Flow Rate [m3/s], 2.33119E-003
 Component Sizing Information, Coil:Heating:Water, VAV_POD_1_HEATC, Design Size U-Factor Times Area Value [W/K], 1398.80429
Water Heating Coil Capacity Information,Coil:Heating:Water,VAV_POD_1_HEATC,68153.74
 Component Sizing Information, Fan:VariableVolume, VAV_POD_1_FAN, Design Size Maximum Flow Rate [m3/s], 8.05263
 Component Sizing Information, Controller:WaterCoil, VAV_POD_1_COOLC_CONTROLLER, Maximum Actuated Flow [m3/s], 1.12875E-002
 Component Sizing Information, Controller:WaterCoil, VAV_POD_1_COOLC_CONTROLLER, Controller Convergence Tolerance, 4.21876E-005
 Component Sizing Information, Controller:WaterCoil, VAV_POD_1_HEATC_CONTROLLER, Maximum Actuated Flow [m3/s], 2.33119E-003
 Component Sizing Information, Controller:OutdoorAir, VAV_POD_2_OA_CONTROLLER, Maximum Outdoor Air Flow Rate [m3/s], 7.87910
 Component Sizing Information, Controller:OutdoorAir, VAV_POD_2_OA_CONTROLLER, Minimum Outdoor Air Flow Rate [m3/s], 4.92800
 Component Sizing Information, Coil:Cooling:Water, VAV_POD_2_COOLC, Design Size Design Inlet Air Temperature [C], 27.82536
 Component Sizing Information, Coil:Cooling:Water, VAV_POD_2_COOLC, Design Size Design Inlet Water Temperature [C], 6.67000
 Component Sizing Information, Coil:Cooling:Water, VAV_POD_2_COOLC, Design Size Design Outlet Air Temperature [C], 11.40525
 Component Sizing Information, Coil:Cooling:Water, VAV_POD_2_COOLC, Design Size Design Inlet Air Humidity Ratio, 1.51826E-002
 Component Sizing Information, Coil:Cooling:Water, VAV_POD_2_COOLC, Design Size Design Outlet Air Humidity Ratio, 8.50000E-003
 Component Sizing Information, Coil:Cooling:Water, VAV_POD_2_COOLC, Design Size Design Coil Load [W], 313317.22401
 Component Sizing Information, Coil:Cooling:Water, VAV_POD_2_COOLC, Design Size Design Water Flow Rate [m3/s], 1.11910E-002
 Component Sizing Information, Coil:Cooling:Water, VAV_POD_2_COOLC, Design Size Design Air Flow Rate [m3/s], 7.87910
Water Cooling Coil Capacity Information,Coil:Cooling:Water,VAV_POD_2_COOLC,256824.78,163153.65,93671.13,0.64,34989.17,354.88
 Component Sizing Information, Coil:Heating:Water, VAV_POD_2_HEATC, Design Size Rated Capacity [W], 104178.13591
 Component Sizing Information, Coil:Heating:Water, VAV_POD_2_HEATC, Design Size Maximum Water Flow Rate [m3/s], 2.28095E-003
 Component Sizing Information, Coil:Heating:Water, VAV_POD_2_HEATC, Design Size U-Factor Times Area Value [W/K], 1368.66168
Water Heating Coil Capacity Information,Coil:Heating:Water,VAV_POD_2_HEATC,66685.10
 Component Sizing Information, Fan:VariableVolume, VAV_POD_2_FAN, Design Size Maximum Flow Rate [m3/s], 7.87910
 Component Sizing Information, Controller:WaterCoil, VAV_POD_2_COOLC_CONTROLLER, Maximum Actuated Flow [m3/s], 1.11910E-002
 Component Sizing Information, Controller:WaterCoil, VAV_POD_2_COOLC_CONTROLLER, Controller Convergence Tolerance, 4.25513E-005
 Component Sizing Information, Controller:WaterCoil, VAV_POD_2_HEATC_CONTROLLER, Maximum Actuated Flow [m3/s], 2.28095E-003
 Component Sizing Information, Controller:OutdoorAir, VAV_POD_3_OA_CONTROLLER, Maximum Outdoor Air Flow Rate [m3/s], 8.51323
 Component Sizing Information, Controller:OutdoorAir, VAV_POD_3_OA_CONTROLLER, Minimum Outdoor Air Flow Rate [m3/s], 4.92800
 Component Sizing Information, Coil:Cooling:Water, VAV_POD_3_COOLC, Design Size Design Inlet Air Temperature [C], 27.52499
 Component Sizing Information, Coil:Cooling:Water, VAV_POD_3_COOLC, Design Size Design Inlet Water Temperature [C], 6.67000
 Component Sizing Information, Coil:Cooling:Water, VAV_POD_3_COOLC, Design Size Design Outlet Air Temperature [C], 11.40432
 Component Sizing Information, Coil:Cooling:Water, VAV_POD_3_COOLC, Design Size Design Inlet Air Humidity Ratio, 1.48126E-002
 Component Sizing Information, Coil:Cooling:Water, VAV_POD_3_COOLC, Design Size Design Outlet Air Humidity Ratio, 8.50000E-003
 Component Sizing Information, Coil:Cooling:Water, VAV_POD_3_COOLC, Design Size Design Coil Load [W], 325982.18954
 Component Sizing Information, Coil:Cooling:Water, VAV_POD_3_COOLC, Design Size Design Water Flow Rate [m3/s], 1.16433E-002
 Component Sizing Information, Coil:Cooling:Water, VAV_POD_3_COOLC, Design Size Design Air Flow Rate [m3/s], 8.51323
Water Cooling Coil Capacity Information,Coil:Cooling:Water,VAV_POD_3_COOLC,275042.42,175173.55,99868.87,0.64,37457.36,379.91
 Component Sizing Information, Coil:Heating:Water, VAV_POD_3_HEATC, Design Size Rated Capacity [W], 112562.60265
 Component Sizing Information, Coil:Heating:Water, VAV_POD_3_HEATC, Design Size Maximum Water Flow Rate [m3/s], 2.46453E-003
 Component Sizing Information, Coil:Heating:Water, VAV_POD_3_HEATC, Design Size U-Factor Times Area Value [W/K], 1478.81434
Water Heating Coil Capacity Information,Coil:Heating:Water,VAV_POD_3_HEATC,72052.05
 Component Sizing Information, Fan:VariableVolume, VAV_POD_3_FAN, Design Size Maximum Flow Rate [m3/s], 8.51323
 Component Sizing Information, Controller:WaterCoil, VAV_POD_3_COOLC_CONTROLLER, Maximum Actuated Flow [m3/s], 1.16433E-002
 Component Sizing Information, Controller:WaterCoil, VAV_POD_3_COOLC_CONTROLLER, Controller Convergence Tolerance, 4.08981E-005
 Component Sizing Information, Controller:WaterCoil, VAV_POD_3_HEATC_CONTROLLER, Maximum Actuated Flow [m3/s], 2.46453E-003
Water Heater Information,WaterHeater:Mixed,SWHSYS1 WATER HEATER,3.0000,845000.0,0.231,0.6798
 Component Sizing Information, PlantLoop, COOLSYS1, Maximum Loop Flow Rate [m3/s], 4.76476E-002
 Component Sizing Information, PlantLoop, COOLSYS1, Plant Loop Volume [m3], 5.71772
 Component Sizing Information, Pump:VariableSpeed, COOLSYS1 PUMP, Design Flow Rate [m3/s], 4.76476E-002
 Component Sizing Information, Pump:VariableSpeed, COOLSYS1 PUMP, Design Power Consumption [W], 12173.36181
 Component Sizing Information, Chiller:Electric:EIR, COOLSYS1 CHILLER, Design Size Reference Chilled Water Flow Rate [m3/s], 4.76476E-002
 Component Sizing Information, Chiller:Electric:EIR, COOLSYS1 CHILLER, Design Size Reference Capacity [W], 1334007.10980
 Component Sizing Information, Chiller:Electric:EIR, COOLSYS1 CHILLER, Design Size Reference Condenser Fluid Flow Rate  [m3/s], 152.07681
! <Chiller Standard Rating Information>, Component Type, Component Name, IPLV in SI Units {W/W}, IPLV in IP Units {Btu/W-h}
 Chiller Standard Rating Information, Chiller:Electric:EIR, COOLSYS1 CHILLER, 3.62, 12.35
 Component Sizing Information, PlantLoop, HEATSYS1, Maximum Loop Flow Rate [m3/s], 2.90371E-002
 Component Sizing Information, PlantLoop, HEATSYS1, Plant Loop Volume [m3], 3.48445
 Component Sizing Information, Pump:VariableSpeed, HEATSYS1 PUMP, Design Flow Rate [m3/s], 2.90371E-002
 Component Sizing Information, Pump:VariableSpeed, HEATSYS1 PUMP, Design Power Consumption [W], 7418.60670
 Component Sizing Information, Boiler:HotWater, HEATSYS1 BOILER, Design Size Nominal Capacity [W], 1326213.81138
 Component Sizing Information, Boiler:HotWater, HEATSYS1 BOILER, Design Size Design Water Flow Rate [m3/s], 2.90371E-002
 Component Sizing Information, PlantLoop, SWHSYS1, Maximum Loop Flow Rate [m3/s], 4.48820E-004
 Component Sizing Information, PlantLoop, SWHSYS1, Plant Loop Volume [m3], 5.38584E-002
 Component Sizing Information, Pump:VariableSpeed, SWHSYS1 PUMP, Design Flow Rate [m3/s], 4.48820E-004
 Component Sizing Information, Pump:VariableSpeed, SWHSYS1 PUMP, Design Power Consumption [W], 114.66776
 Component Sizing Information, WaterHeater:Mixed, SWHSYS1 WATER HEATER, Use Side Design Flow Rate [m3/s], 4.48820E-004
! <Environment>,Environment Name,Environment Type, Start Date, End Date, Start DayOfWeek, Duration {#days}, Source:Start DayOfWeek,  Use Daylight Saving, Use Holidays, Apply Weekend Holiday Rule,  Use Rain Values, Use Snow Values
! <Environment:Special Days>, Special Day Name, Special Day Type, Source, Start Date, Duration {#days}
! <Environment:Daylight Saving>, Daylight Saving Indicator, Source, Start Date, End Date
! <Environment:WarmupDays>, NumberofWarmupDays
Environment,RUNPERIOD 1,WeatherFileRunPeriod,01/01/2017,12/31/2017,Sunday,365,Use RunPeriod Specified Day,No,No,No,Yes,Yes
Environment:Daylight Saving,Yes,InputFile,03/12,11/05
Environment:Special Days,NEW YEARS DAY,Holiday,InputFile,01/01,  1
Environment:Special Days,VETERANS DAY,Holiday,InputFile,11/11,  1
Environment:Special Days,CHRISTMAS,Holiday,InputFile,12/25,  1
Environment:Special Days,INDEPENDENCE DAY,Holiday,InputFile,07/04,  1
Environment:Special Days,MLK DAY,Holiday,InputFile,01/16,  1
Environment:Special Days,PRESIDENTS DAY,Holiday,InputFile,02/20,  1
Environment:Special Days,MEMORIAL DAY,Holiday,InputFile,05/29,  1
Environment:Special Days,LABOR DAY,Holiday,InputFile,09/04,  1
Environment:Special Days,COLUMBUS DAY,Holiday,InputFile,10/09,  1
Environment:Special Days,THANKSGIVING,Holiday,InputFile,11/23,  1
Environment:WarmupDays,  7
! <Warmup Convergence Information>,Zone Name,Environment Type/Name,Average Warmup Temperature Difference {deltaC},Std Dev Warmup Temperature Difference {deltaC},Max Temperature Pass/Fail Convergence,Min Temperature Pass/Fail Convergence,Average Warmup Load Difference {W},Std Dev Warmup Load Difference {W},Heating Load Pass/Fail Convergence,Cooling Load Pass/Fail Convergence
 Warmup Convergence Information,AUDITORIUM_ZN_1_FLR_1,RunPeriod: RUNPERIOD 1,0.1763709216,0.1646338886,Pass,Pass,0.3650404040,0.6571731728,Pass,Pass
 Warmup Convergence Information,AUX_GYM_ZN_1_FLR_1,RunPeriod: RUNPERIOD 1,0.1404940902,0.1780679051,Pass,Pass,0.3818821579,0.9003343298,Pass,Pass
 Warmup Convergence Information,BATHROOMS_ZN_1_FLR_1,RunPeriod: RUNPERIOD 1,9.5379162856E-002,0.1522708602,Pass,Pass,0.5283557112,0.5335128250,Pass,Pass
 Warmup Convergence Information,BATHROOMS_ZN_1_FLR_2,RunPeriod: RUNPERIOD 1,0.4174934452,0.4198624950,Pass,Pass,0.5501521835,0.4896942002,Pass,Pass
 Warmup Convergence Information,CAFETERIA_ZN_1_FLR_1,RunPeriod: RUNPERIOD 1,1.7731100316E-002,2.6637994278E-002,Pass,Pass,0.0000000000,0.0000000000,Pass,Pass
 Warmup Convergence Information,CORNER_CLASS_1_POD_1_ZN_1_FLR_1,RunPeriod: RUNPERIOD 1,0.1874701774,0.2560978578,Pass,Pass,0.5391337614,0.5601314185,Pass,Pass
 Warmup Convergence Information,CORNER_CLASS_1_POD_1_ZN_1_FLR_2,RunPeriod: RUNPERIOD 1,0.4084900223,0.5151743418,Pass,Pass,0.5594399573,0.5945821860,Pass,Pass
 Warmup Convergence Information,CORNER_CLASS_1_POD_2_ZN_1_FLR_1,RunPeriod: RUNPERIOD 1,0.1966040855,0.2676496922,Pass,Pass,0.6056506750,0.9832940051,Pass,Pass
 Warmup Convergence Information,CORNER_CLASS_1_POD_2_ZN_1_FLR_2,RunPeriod: RUNPERIOD 1,0.4194593037,0.5195752745,Pass,Pass,0.5400669648,0.5192832789,Pass,Pass
 Warmup Convergence Information,CORNER_CLASS_1_POD_3_ZN_1_FLR_1,RunPeriod: RUNPERIOD 1,0.1953515787,0.2661212475,Pass,Pass,0.5977791506,0.9183647248,Pass,Pass
 Warmup Convergence Information,CORNER_CLASS_1_POD_3_ZN_1_FLR_2,RunPeriod: RUNPERIOD 1,0.4181381772,0.5192610351,Pass,Pass,0.5432298451,0.5334591448,Pass,Pass
 Warmup Convergence Information,CORNER_CLASS_2_POD_1_ZN_1_FLR_1,RunPeriod: RUNPERIOD 1,0.2419519296,0.2985648124,Pass,Pass,0.5044444062,0.4835288120,Pass,Pass
 Warmup Convergence Information,CORNER_CLASS_2_POD_1_ZN_1_FLR_2,RunPeriod: RUNPERIOD 1,0.5720812750,0.5826724547,Pass,Pass,0.5470868501,0.4882766301,Pass,Pass
 Warmup Convergence Information,CORNER_CLASS_2_POD_2_ZN_1_FLR_1,RunPeriod: RUNPERIOD 1,0.2464049773,0.3009855460,Pass,Pass,0.5051558956,0.4831436950,Pass,Pass
 Warmup Convergence Information,CORNER_CLASS_2_POD_2_ZN_1_FLR_2,RunPeriod: RUNPERIOD 1,0.5737018924,0.5838052855,Pass,Pass,0.5475959094,0.4887377588,Pass,Pass
 Warmup Convergence Information,CORNER_CLASS_2_POD_3_ZN_1_FLR_1,RunPeriod: RUNPERIOD 1,0.2460896308,0.3026867055,Pass,Pass,0.5040511648,0.4837941739,Pass,Pass
 Warmup Convergence Information,CORNER_CLASS_2_POD_3_ZN_1_FLR_2,RunPeriod: RUNPERIOD 1,0.5735177883,0.5841634936,Pass,Pass,0.5474913715,0.4884737445,Pass,Pass
 Warmup Convergence Information,CORRIDOR_POD_1_ZN_1_FLR_1,RunPeriod: RUNPERIOD 1,5.5249749361E-002,4.1688066106E-002,Pass,Pass,0.4875439168,0.4965163496,Pass,Pass
 Warmup Convergence Information,CORRIDOR_POD_1_ZN_1_FLR_2,RunPeriod: RUNPERIOD 1,0.1396372421,0.1608837667,Pass,Pass,0.5364372543,0.4829821156,Pass,Pass
 Warmup Convergence Information,CORRIDOR_POD_2_ZN_1_FLR_1,RunPeriod: RUNPERIOD 1,3.7020740746E-002,2.7088903430E-002,Pass,Pass,0.4870784856,0.4974063129,Pass,Pass
 Warmup Convergence Information,CORRIDOR_POD_2_ZN_1_FLR_2,RunPeriod: RUNPERIOD 1,0.1522616360,0.1714903121,Pass,Pass,0.5350012598,0.4821928905,Pass,Pass
 Warmup Convergence Information,CORRIDOR_POD_3_ZN_1_FLR_1,RunPeriod: RUNPERIOD 1,3.7632997233E-002,2.7526669044E-002,Pass,Pass,0.4870928208,0.4973762117,Pass,Pass
 Warmup Convergence Information,CORRIDOR_POD_3_ZN_1_FLR_2,RunPeriod: RUNPERIOD 1,0.1538333417,0.1730654815,Pass,Pass,0.5354050355,0.4827624238,Pass,Pass
 Warmup Convergence Information,GYM_ZN_1_FLR_1,RunPeriod: RUNPERIOD 1,0.1127510549,0.1457435190,Pass,Pass,0.1794908595,0.3902421332,Pass,Pass
 Warmup Convergence Information,KITCHEN_ZN_1_FLR_1,RunPeriod: RUNPERIOD 1,1.0586382740E-002,1.8428752514E-002,Pass,Pass,0.0000000000,0.0000000000,Pass,Pass
 Warmup Convergence Information,LIBRARY_MEDIA_CENTER_ZN_1_FLR_2,RunPeriod: RUNPERIOD 1,0.1848045636,0.2061830445,Pass,Pass,0.5254871343,0.4790510789,Pass,Pass
 Warmup Convergence Information,LOBBY_ZN_1_FLR_1,RunPeriod: RUNPERIOD 1,6.2668972868E-002,3.8351308591E-002,Pass,Pass,0.4938352594,0.4987860470,Pass,Pass
 Warmup Convergence Information,LOBBY_ZN_1_FLR_2,RunPeriod: RUNPERIOD 1,0.1606808891,0.2280965396,Pass,Pass,0.7444271481,2.4087583539,Pass,Pass
 Warmup Convergence Information,MAIN_CORRIDOR_ZN_1_FLR_1,RunPeriod: RUNPERIOD 1,3.9821362127E-002,2.9845608645E-002,Pass,Pass,0.4872565649,0.4967281010,Pass,Pass
 Warmup Convergence Information,MAIN_CORRIDOR_ZN_1_FLR_2,RunPeriod: RUNPERIOD 1,0.1964042821,0.2114543954,Pass,Pass,0.5232440375,0.4772438392,Pass,Pass
 Warmup Convergence Information,MECH_ZN_1_FLR_1,RunPeriod: RUNPERIOD 1,0.1320796348,9.6248438346E-002,Pass,Pass,0.4895537970,0.4924164138,Pass,Pass
 Warmup Convergence Information,MECH_ZN_1_FLR_2,RunPeriod: RUNPERIOD 1,2.9023895862E-002,4.1862064248E-002,Pass,Pass,0.5577490731,0.6025588943,Pass,Pass
 Warmup Convergence Information,MULT_CLASS_1_POD_1_ZN_1_FLR_1,RunPeriod: RUNPERIOD 1,8.6896754358E-002,6.7995055733E-002,Pass,Pass,0.5666533167,0.6851121792,Pass,Pass
 Warmup Convergence Information,MULT_CLASS_1_POD_1_ZN_1_FLR_2,RunPeriod: RUNPERIOD 1,0.1997028402,0.2708356993,Pass,Pass,0.7178164508,1.8230641522,Pass,Pass
 Warmup Convergence Information,MULT_CLASS_1_POD_2_ZN_1_FLR_1,RunPeriod: RUNPERIOD 1,8.2772699563E-002,6.7828701319E-002,Pass,Pass,0.5210492765,0.6077572944,Pass,Pass
 Warmup Convergence Information,MULT_CLASS_1_POD_2_ZN_1_FLR_2,RunPeriod: RUNPERIOD 1,0.2089412515,0.2843883264,Pass,Pass,0.5679666433,0.5888862533,Pass,Pass
 Warmup Convergence Information,MULT_CLASS_1_POD_3_ZN_1_FLR_1,RunPeriod: RUNPERIOD 1,8.3204019469E-002,6.7841197619E-002,Pass,Pass,0.5471274960,0.8426567634,Pass,Pass
 Warmup Convergence Information,MULT_CLASS_1_POD_3_ZN_1_FLR_2,RunPeriod: RUNPERIOD 1,0.2087355303,0.2866792108,Pass,Pass,0.5575623584,0.5539968864,Pass,Pass
 Warmup Convergence Information,MULT_CLASS_2_POD_1_ZN_1_FLR_1,RunPeriod: RUNPERIOD 1,6.3609864940E-002,7.7691039136E-002,Pass,Pass,0.5487792769,0.7660913155,Pass,Pass
 Warmup Convergence Information,MULT_CLASS_2_POD_1_ZN_1_FLR_2,RunPeriod: RUNPERIOD 1,0.3376973694,0.3418178170,Pass,Pass,0.5471660971,0.4867311582,Pass,Pass
 Warmup Convergence Information,MULT_CLASS_2_POD_2_ZN_1_FLR_1,RunPeriod: RUNPERIOD 1,6.3817131123E-002,8.1263501954E-002,Pass,Pass,0.5478013670,0.6047347357,Pass,Pass
 Warmup Convergence Information,MULT_CLASS_2_POD_2_ZN_1_FLR_2,RunPeriod: RUNPERIOD 1,0.3395633079,0.3433296977,Pass,Pass,0.5481282274,0.4873421157,Pass,Pass
 Warmup Convergence Information,MULT_CLASS_2_POD_3_ZN_1_FLR_1,RunPeriod: RUNPERIOD 1,6.6138767837E-002,8.6059876941E-002,Pass,Pass,0.6636819817,1.4559590130,Pass,Pass
 Warmup Convergence Information,MULT_CLASS_2_POD_3_ZN_1_FLR_2,RunPeriod: RUNPERIOD 1,0.3412606723,0.3506725655,Pass,Pass,0.5480387829,0.4871805534,Pass,Pass
 Warmup Convergence Information,OFFICES_ZN_1_FLR_1,RunPeriod: RUNPERIOD 1,7.0030445276E-002,5.5784030719E-002,Pass,Pass,0.6702562652,1.6592605660,Pass,Pass
 Warmup Convergence Information,OFFICES_ZN_1_FLR_2,RunPeriod: RUNPERIOD 1,0.1739947440,0.2485336600,Pass,Pass,0.6487211411,1.2218741337,Pass,Pass
! <Program Control Information:Threads/Parallel Sims>, Threading Supported,Maximum Number of Threads, Env Set Threads (OMP_NUM_THREADS), EP Env Set Threads (EP_OMP_NUM_THREADS), IDF Set Threads, Number of Threads Used (Interior Radiant Exchange), Number Nominal Surfaces, Number Parallel Sims
Program Control:Threads/Parallel Sims, No,1, N/A, N/A, N/A, N/A, N/A, N/A
End of Data
