Program Version,EnergyPlus, Version 9.2.0-921312fa1d, YMD=2020.12.22 18:15,
   ** Warning ** Output:PreprocessorMessage="Conversion 7.2 => 8.0" has the following Warning conditions:
   **   ~~~   ** Boiler:HotWater="HeatSys1 Boiler"
   **   ~~~   ** defaults for this object have changed. Results may be different than previous. See
   **   ~~~   ** InputOutputReference document for details.
   ** Warning ** Output:PreprocessorMessage="Conversion 7.2 => 8.0" has the following Warning conditions:
   **   ~~~   ** Chiller:Electric:EIR="CoolSys1 Chiller"
   **   ~~~   ** defaults for this object have changed. See InputOutputReference document for details.
   ************* Beginning Zone Sizing Calculations
   ** Warning ** CheckUsedConstructions: There are 2 nominally unused constructions in input.
   **   ~~~   ** For explicit details on each unused construction, use Output:Diagnostics,DisplayExtraWarnings;
   ************* Beginning System Sizing Calculations
   ************* Beginning Plant Sizing Calculations
   ** Warning ** Output:Meter: invalid Key Name="EXTERIOREQUIPMENT:ELECTRICITY" - not found.
   ** Warning ** Output:Meter: invalid Key Name="HEATREJECTION:ELECTRICITY" - not found.
   ** Warning ** Output:Meter: invalid Key Name="HUMIDIFIER:ELECTRICITY" - not found.
   ** Warning ** Output:Meter: invalid Key Name="WATERSYSTEMS:ELECTRICITY" - not found.
   ** Warning ** Output:Meter: invalid Key Name="HEATING:DISTRICTHEATING" - not found.
   ** Warning ** Output:Meter: invalid Key Name="COOLING:DISTRICTCOOLING" - not found.
   ** Warning ** Output:Meter: invalid Key Name="COOLING:GAS" - not found.
   ** Warning ** Output:Meter: invalid Key Name="BASEBOARD:ENERGYTRANSFER" - not found.
   ************* Testing Individual Branch Integrity
   ************* All Branches passed integrity testing
   ************* Testing Individual Supply Air Path Integrity
   ************* All Supply Air Paths passed integrity testing
   ************* Testing Individual Return Air Path Integrity
   ************* All Return Air Paths passed integrity testing
   ************* No node connection errors were found.
   ************* Beginning Simulation
   ** Warning ** In zone BATHROOMS_ZN_1_FLR_1 there is unbalanced air flow. Load due to induced outdoor air is neglected.
   **   ~~~   **  Environment=RUNPERIOD 1, at Simulation time=01/01 00:04 - 00:06
   **   ~~~   **   Flows [m3/s]: Inlets: 0.157500  Unbalanced exhausts: 0.300000  Returns: 0.000000
   **   ~~~   **   Infiltration: 3.757936E-002  Zone Ventilation: 0.000000  Mixing (incoming): 0.000000
   **   ~~~   **   Imbalance (excess outflow): 0.104921  Total system OA flow (for all airloops serving this zone): 12.437413
   **   ~~~   **   This error will only be reported once per zone.
   ** Warning ** In zone BATHROOMS_ZN_1_FLR_2 there is unbalanced air flow. Load due to induced outdoor air is neglected.
   **   ~~~   **  Environment=RUNPERIOD 1, at Simulation time=01/01 00:04 - 00:06
   **   ~~~   **   Flows [m3/s]: Inlets: 0.195776  Unbalanced exhausts: 0.300000  Returns: 0.000000
   **   ~~~   **   Infiltration: 3.751597E-002  Zone Ventilation: 0.000000  Mixing (incoming): 0.000000
   **   ~~~   **   Imbalance (excess outflow): 6.670824E-002  Total system OA flow (for all airloops serving this zone): 12.437413
   **   ~~~   **   This error will only be reported once per zone.
   ** Warning ** CalcDoe2DXCoil: Coil:Cooling:DX:SingleSpeed "PSZ-AC_4:8_COOLC DXCOIL" - Air-cooled condenser inlet dry-bulb temperature below 0 C. Outdoor dry-bulb temperature = -0.40
   **   ~~~   **  ... Occurrence info = RUNPERIOD 1, 01/02 08:15 - 08:20
   **   ~~~   ** ... Operation at low ambient temperatures may require special performance curves.
   ** Warning ** CalcDoe2DXCoil: Coil:Cooling:DX:SingleSpeed "PSZ-AC_4:8_COOLC DXCOIL" - Full load outlet air dry-bulb temperature < 2C. This indicates the possibility of coil frost/freeze. Outlet temperature = -6.85 C.
   **   ~~~   **  ...Occurrence info = RUNPERIOD 1, 01/02 08:15 - 08:20
   **   ~~~   ** ... Possible reasons for low outlet air dry-bulb temperatures are: This DX coil
   **   ~~~   **    1) may have a low inlet air dry-bulb temperature. Inlet air temperature = 9.464 C.
   **   ~~~   **    2) may have a low air flow rate per watt of cooling capacity. Check inputs.
   **   ~~~   **    3) is used as part of a HX assisted cooling coil which uses a high sensible effectiveness. Check inputs.
   ** Warning ** CalcDoe2DXCoil: Coil:Cooling:DX:SingleSpeed "PSZ-AC_3:7_COOLC DXCOIL" - Full load outlet air dry-bulb temperature < 2C. This indicates the possibility of coil frost/freeze. Outlet temperature = 9.40E-002 C.
   **   ~~~   **  ...Occurrence info = RUNPERIOD 1, 04/10 15:15 - 15:20
   **   ~~~   ** ... Possible reasons for low outlet air dry-bulb temperatures are: This DX coil
   **   ~~~   **    1) may have a low inlet air dry-bulb temperature. Inlet air temperature = 17.400 C.
   **   ~~~   **    2) may have a low air flow rate per watt of cooling capacity. Check inputs.
   **   ~~~   **    3) is used as part of a HX assisted cooling coil which uses a high sensible effectiveness. Check inputs.
   ** Warning ** CalcDoe2DXCoil: Coil:Cooling:DX:SingleSpeed "PSZ-AC_2:6_COOLC DXCOIL" - Full load outlet air dry-bulb temperature < 2C. This indicates the possibility of coil frost/freeze. Outlet temperature = 0.22 C.
   **   ~~~   **  ...Occurrence info = RUNPERIOD 1, 04/10 15:40 - 15:50
   **   ~~~   ** ... Possible reasons for low outlet air dry-bulb temperatures are: This DX coil
   **   ~~~   **    1) may have a low inlet air dry-bulb temperature. Inlet air temperature = 17.700 C.
   **   ~~~   **    2) may have a low air flow rate per watt of cooling capacity. Check inputs.
   **   ~~~   **    3) is used as part of a HX assisted cooling coil which uses a high sensible effectiveness. Check inputs.
   ** Warning ** CalcDoe2DXCoil: Coil:Cooling:DX:SingleSpeed "PSZ-AC_1:5_COOLC DXCOIL" - Full load outlet air dry-bulb temperature < 2C. This indicates the possibility of coil frost/freeze. Outlet temperature = 1.73 C.
   **   ~~~   **  ...Occurrence info = RUNPERIOD 1, 05/03 18:50 - 19:00
   **   ~~~   ** ... Possible reasons for low outlet air dry-bulb temperatures are: This DX coil
   **   ~~~   **    1) may have a low inlet air dry-bulb temperature. Inlet air temperature = 18.300 C.
   **   ~~~   **    2) may have a low air flow rate per watt of cooling capacity. Check inputs.
   **   ~~~   **    3) is used as part of a HX assisted cooling coil which uses a high sensible effectiveness. Check inputs.
   ************* Simulation Error Summary *************
   ** Warning ** The following Report Variables were requested but not generated -- check.rdd file
   **   ~~~   ** Either the IDF did not contain these elements, the variable name is misspelled,
   **   ~~~   ** or the requested variable is an advanced output which requires Output : Diagnostics, DisplayAdvancedReportVariables;
   ************* Key=*, VarName=ZONE IDEAL LOADS ZONE TOTAL COOLING ENERGY, Frequency=Hourly
   ************* Key=*, VarName=ZONE IDEAL LOADS ZONE TOTAL HEATING ENERGY, Frequency=Hourly
   ************* Key=*, VarName=HEAT EXCHANGER TOTAL HEATING RATE, Frequency=Hourly
   ************* Key=*, VarName=HEAT EXCHANGER SENSIBLE EFFECTIVENESS, Frequency=Hourly
   ************* Key=*, VarName=HEAT EXCHANGER LATENT EFFECTIVENESS, Frequency=Hourly
   *************
   ************* ===== Recurring Error Summary =====
   ************* The following recurring error messages occurred.
   *************
   *************  ** Warning ** CalcDoe2DXCoil: Coil:Cooling:DX:SingleSpeed="PSZ-AC_4:8_COOLC DXCOIL" - Low condenser dry-bulb temperature error continues...
   *************  **   ~~~   **   This error occurred 61 total times;
   *************  **   ~~~   **   during Warmup 0 times;
   *************  **   ~~~   **   during Sizing 0 times.
   *************  **   ~~~   **   Max=-3.333333E-002 [C]  Min=-2.2 [C]
   *************
   *************  ** Warning ** CalcDoe2DXCoil: Coil:Cooling:DX:SingleSpeed="PSZ-AC_4:8_COOLC DXCOIL" - Full load outlet temperature indicates a possibility of frost/freeze error continues. Outlet air temperature statistics follow:
   *************  **   ~~~   **   This error occurred 364 total times;
   *************  **   ~~~   **   during Warmup 0 times;
   *************  **   ~~~   **   during Sizing 0 times.
   *************  **   ~~~   **   Max=1.999686  Min=-8.583001
   *************
   *************  ** Warning ** CalcDoe2DXCoil: Coil:Cooling:DX:SingleSpeed="PSZ-AC_3:7_COOLC DXCOIL" - Full load outlet temperature indicates a possibility of frost/freeze error continues. Outlet air temperature statistics follow:
   *************  **   ~~~   **   This error occurred 19 total times;
   *************  **   ~~~   **   during Warmup 0 times;
   *************  **   ~~~   **   during Sizing 0 times.
   *************  **   ~~~   **   Max=0.451241  Min=7.097215E-002
   *************
   *************  ** Warning ** CalcDoe2DXCoil: Coil:Cooling:DX:SingleSpeed="PSZ-AC_2:6_COOLC DXCOIL" - Full load outlet temperature indicates a possibility of frost/freeze error continues. Outlet air temperature statistics follow:
   *************  **   ~~~   **   This error occurred 54 total times;
   *************  **   ~~~   **   during Warmup 0 times;
   *************  **   ~~~   **   during Sizing 0 times.
   *************  **   ~~~   **   Max=1.951028  Min=-0.494426
   *************
   *************  ** Warning ** CalcDoe2DXCoil: Coil:Cooling:DX:SingleSpeed="PSZ-AC_1:5_COOLC DXCOIL" - Full load outlet temperature indicates a possibility of frost/freeze error continues. Outlet air temperature statistics follow:
   *************  **   ~~~   **   This error occurred 32 total times;
   *************  **   ~~~   **   during Warmup 0 times;
   *************  **   ~~~   **   during Sizing 0 times.
   *************  **   ~~~   **   Max=1.948894  Min=-0.199263
   *************
   *************
   ************* ===== Final Error Summary =====
   ************* The following error categories occurred.  Consider correcting or noting.
   ************* Nominally Unused Constructions
   ************* ..The nominally unused constructions warning is provided to alert you to potential conditions that can cause
   ************* ..extra time during simulation. Each construction is calculated by the algorithm indicated in the HeatBalanceAlgorithm
   ************* ..object. You may remove the constructions indicated (when you use the DisplayExtraWarnings option).
   *************
   ************* EnergyPlus Warmup Error Summary. During Warmup: 0 Warning; 0 Severe Errors.
   ************* EnergyPlus Sizing Error Summary. During Sizing: 1 Warning; 0 Severe Errors.
   ************* EnergyPlus Completed Successfully-- 544 Warning; 0 Severe Errors; Elapsed Time=00hr 02min 51.90sec
