Program Version,EnergyPlus, Version 9.2.0-921312fa1d, YMD=2020.12.22 18:12
! <Version>, Version ID
 Version, 9.2
! <Timesteps per Hour>, #TimeSteps, Minutes per TimeStep {minutes}
 Timesteps per Hour,  6, 10
! <System Convergence Limits>, Minimum System TimeStep {minutes}, Max HVAC Iterations, Minimum Plant Iterations, Maximum Plant Iterations
 System Convergence Limits, 2, 25, 2, 8
! <Simulation Control>, Do Zone Sizing, Do System Sizing, Do Plant Sizing, Do Design Days, Do Weather Simulation, Do HVAC Sizing Simulation
 Simulation Control, Yes, Yes, Yes, No, Yes, No
! <Output Reporting Tolerances>, Tolerance for Time Heating Setpoint Not Met, Tolerance for Zone Cooling Setpoint Not Met Time
 Output Reporting Tolerances, 0.556, 0.556, 
! <Site:GroundTemperature:BuildingSurface>,Jan{C},Feb{C},Mar{C},Apr{C},May{C},Jun{C},Jul{C},Aug{C},Sep{C},Oct{C},Nov{C},Dec{C}
 Site:GroundTemperature:BuildingSurface,  19.53,  19.50,  19.54,  19.60,  20.00,  21.64,  22.23,  22.38,  21.45,  20.12,  19.80,  19.63
! <Site:GroundTemperature:FCfactorMethod>,Jan{C},Feb{C},Mar{C},Apr{C},May{C},Jun{C},Jul{C},Aug{C},Sep{C},Oct{C},Nov{C},Dec{C}
 Site:GroundTemperature:FCfactorMethod,  -1.89,  -3.06,  -0.99,   2.23,  10.68,  17.20,  21.60,  22.94,  20.66,  15.60,   8.83,   2.56
! <Site:GroundTemperature:Shallow>,Jan{C},Feb{C},Mar{C},Apr{C},May{C},Jun{C},Jul{C},Aug{C},Sep{C},Oct{C},Nov{C},Dec{C}
 Site:GroundTemperature:Shallow,  13.00,  13.00,  13.00,  13.00,  13.00,  13.00,  13.00,  13.00,  13.00,  13.00,  13.00,  13.00
! <Site:GroundTemperature:Deep>,Jan{C},Feb{C},Mar{C},Apr{C},May{C},Jun{C},Jul{C},Aug{C},Sep{C},Oct{C},Nov{C},Dec{C}
 Site:GroundTemperature:Deep,  16.00,  16.00,  16.00,  16.00,  16.00,  16.00,  16.00,  16.00,  16.00,  16.00,  16.00,  16.00
! <Site:GroundReflectance>,Jan{dimensionless},Feb{dimensionless},Mar{dimensionless},Apr{dimensionless},May{dimensionless},Jun{dimensionless},Jul{dimensionless},Aug{dimensionless},Sep{dimensionless},Oct{dimensionless},Nov{dimensionless},Dec{dimensionless}
 Site:GroundReflectance,  0.20,  0.20,  0.20,  0.20,  0.20,  0.20,  0.20,  0.20,  0.20,  0.20,  0.20,  0.20
! <Site:GroundReflectance:SnowModifier>, Normal, Daylighting {dimensionless}
 Site:GroundReflectance:SnowModifier,   1.000,   1.000
! <Site:GroundReflectance:Snow>,Jan{dimensionless},Feb{dimensionless},Mar{dimensionless},Apr{dimensionless},May{dimensionless},Jun{dimensionless},Jul{dimensionless},Aug{dimensionless},Sep{dimensionless},Oct{dimensionless},Nov{dimensionless},Dec{dimensionless}
 Site:GroundReflectance:Snow,  0.20,  0.20,  0.20,  0.20,  0.20,  0.20,  0.20,  0.20,  0.20,  0.20,  0.20,  0.20
! <Site:GroundReflectance:Snow:Daylighting>,Jan{dimensionless},Feb{dimensionless},Mar{dimensionless},Apr{dimensionless},May{dimensionless},Jun{dimensionless},Jul{dimensionless},Aug{dimensionless},Sep{dimensionless},Oct{dimensionless},Nov{dimensionless},Dec{dimensionless}
 Site:GroundReflectance:Snow:Daylighting,  0.20,  0.20,  0.20,  0.20,  0.20,  0.20,  0.20,  0.20,  0.20,  0.20,  0.20,  0.20
! <Environment:Weather Station>,Wind Sensor Height Above Ground {m},Wind Speed Profile Exponent {},Wind Speed Profile Boundary Layer Thickness {m},Air Temperature Sensor Height Above Ground {m},Wind Speed Modifier Coefficient-Internal,Temperature Modifier Coefficient-Internal
Environment:Weather Station,10.000,0.140,270.000,1.500,1.586,9.750E-003
! <Site:Location>, Location Name, Latitude {N+/S- Deg}, Longitude {E+/W- Deg},  Time Zone Number {GMT+/-}, Elevation {m},  Standard Pressure at Elevation {Pa}, Standard RhoAir at Elevation
Site:Location,Chicago Ohare Intl Ap IL USA TMY3 WMO#=725300,41.98,-87.92,-6.00,201.00,98934,1.1759
! <Site Water Mains Temperature Information>,Calculation Method{},Water Mains Temperature Schedule Name{},Annual Average Outdoor Air Temperature{C},Maximum Difference In Monthly Average Outdoor Air Temperatures{deltaC},Fixed Default Water Mains Temperature{C}
Site Water Mains Temperature Information,Correlation,NA,9.69,28.10,NA
! Schedule Details Report=Hourly =====================
! <ScheduleType>,Name,Limited? {Yes/No},Minimum,Maximum,Continuous? {Yes/No - Discrete}
! <DaySchedule>,Name,ScheduleType,Interpolated {Yes/No},Time (HH:MM) =>,01:00,02:00,03:00,04:00,05:00,06:00,07:00,08:00,09:00,10:00,11:00,12:00,13:00,14:00,15:00,16:00,17:00,18:00,19:00,20:00,21:00,22:00,23:00,24:00
! <WeekSchedule>,Name,Sunday,Monday,Tuesday,Wednesday,Thursday,Friday,Saturday,Holiday,SummerDesignDay,WinterDesignDay,CustomDay1,CustomDay2
! <Schedule>,Name,ScheduleType,{Until Date,WeekSchedule}** Repeated until Dec 31
ScheduleTypeLimits,ANY NUMBER,No,N/A,N/A,N/A
ScheduleTypeLimits,FRACTION,Average,0.00,1.00,Yes
ScheduleTypeLimits,TEMPERATURE,Average,-60.00,200.00,Yes
ScheduleTypeLimits,ON/OFF,Average,0,1,No
ScheduleTypeLimits,CONTROL TYPE,Average,0,4,No
ScheduleTypeLimits,HUMIDITY,Average,10.00,90.00,Yes
ScheduleTypeLimits,NUMBER,No,N/A,N/A,N/A
DaySchedule,ALWAYS_ON_dy_1,ON/OFF,No,Values:,1.00,1.00,1.00,1.00,1.00,1.00,1.00,1.00,1.00,1.00,1.00,1.00,1.00,1.00,1.00,1.00,1.00,1.00,1.00,1.00,1.00,1.00,1.00,1.00
DaySchedule,KITCHEN_EXHAUST_SCH_dy_1,FRACTION,No,Values:,0.00,0.00,0.00,0.00,0.00,0.00,1.00,1.00,1.00,1.00,1.00,1.00,1.00,1.00,1.00,1.00,1.00,1.00,1.00,1.00,1.00,0.00,0.00,0.00
DaySchedule,KITCHEN_EXHAUST_SCH_dy_2,FRACTION,No,Values:,0.00,0.00,0.00,0.00,0.00,0.00,0.00,0.00,0.00,0.00,0.00,0.00,0.00,0.00,0.00,0.00,0.00,0.00,0.00,0.00,0.00,0.00,0.00,0.00
DaySchedule,BLDG_ELEVATORS_dy_1,FRACTION,No,Values:,0.00,0.00,0.00,0.00,0.00,0.00,0.00,0.00,0.30,0.30,0.30,0.30,0.30,0.30,0.30,0.15,0.00,0.00,0.00,0.00,0.00,0.00,0.00,0.00
DaySchedule,BLDG_ELEVATORS_dy_2,FRACTION,No,Values:,0.00,0.00,0.00,0.00,0.00,0.00,0.00,0.00,0.00,0.00,0.00,0.00,0.00,0.00,0.00,0.00,0.00,0.00,0.00,0.00,0.00,0.00,0.00,0.00
DaySchedule,BLDG_EQUIP_SCH_dy_1,FRACTION,No,Values:,0.35,0.35,0.35,0.35,0.35,0.35,0.35,0.35,0.95,0.95,0.95,0.95,0.95,0.95,0.95,0.95,0.95,0.35,0.35,0.35,0.35,0.35,0.35,0.35
DaySchedule,BLDG_EQUIP_SCH_dy_2,FRACTION,No,Values:,0.35,0.35,0.35,0.35,0.35,0.35,0.35,0.35,0.35,0.35,0.35,0.35,0.35,0.35,0.35,0.35,0.35,0.35,0.35,0.35,0.35,0.35,0.35,0.35
DaySchedule,BLDG_EQUIP_SCH_dy_3,FRACTION,No,Values:,0.25,0.25,0.25,0.25,0.25,0.25,0.25,0.25,0.50,0.50,0.50,0.50,0.50,0.50,0.50,0.50,0.50,0.25,0.25,0.25,0.25,0.25,0.25,0.25
DaySchedule,BLDG_EQUIP_SCH_dy_4,FRACTION,No,Values:,0.25,0.25,0.25,0.25,0.25,0.25,0.25,0.25,0.25,0.25,0.25,0.25,0.25,0.25,0.25,0.25,0.25,0.25,0.25,0.25,0.25,0.25,0.25,0.25
DaySchedule,BLDG_EQUIP_SCH_dy_5,FRACTION,No,Values:,0.35,0.35,0.35,0.35,0.35,0.35,0.35,0.35,0.95,0.95,0.95,0.95,0.95,0.95,0.95,0.95,0.95,0.35,0.35,0.35,0.35,0.35,0.35,0.35
DaySchedule,BLDG_EQUIP_SCH_dy_6,FRACTION,No,Values:,0.35,0.35,0.35,0.35,0.35,0.35,0.35,0.35,0.35,0.35,0.35,0.35,0.35,0.35,0.35,0.35,0.35,0.35,0.35,0.35,0.35,0.35,0.35,0.35
DaySchedule,BLDG_LIGHT_SCH_dy_1,FRACTION,No,Values:,0.18,0.18,0.18,0.18,0.18,0.18,0.18,0.90,0.90,0.90,0.90,0.90,0.90,0.90,0.90,0.90,0.90,0.90,0.90,0.90,0.90,0.18,0.18,0.18
DaySchedule,BLDG_LIGHT_SCH_dy_2,FRACTION,No,Values:,0.18,0.18,0.18,0.18,0.18,0.18,0.18,0.18,0.18,0.18,0.18,0.18,0.18,0.18,0.18,0.18,0.18,0.18,0.18,0.18,0.18,0.18,0.18,0.18
DaySchedule,BLDG_LIGHT_SCH_dy_3,FRACTION,No,Values:,0.18,0.18,0.18,0.18,0.18,0.18,0.18,0.18,0.50,0.50,0.50,0.50,0.50,0.50,0.50,0.50,0.50,0.50,0.50,0.50,0.18,0.18,0.18,0.18
DaySchedule,BLDG_LIGHT_SCH_dy_4,FRACTION,No,Values:,0.18,0.18,0.18,0.18,0.18,0.18,0.18,0.18,0.18,0.18,0.18,0.18,0.18,0.18,0.18,0.18,0.18,0.18,0.18,0.18,0.18,0.18,0.18,0.18
DaySchedule,BLDG_LIGHT_SCH_dy_5,FRACTION,No,Values:,0.18,0.18,0.18,0.18,0.18,0.18,0.18,0.90,0.90,0.90,0.90,0.90,0.90,0.90,0.90,0.90,0.90,0.90,0.90,0.90,0.90,0.18,0.18,0.18
DaySchedule,BLDG_LIGHT_SCH_dy_6,FRACTION,No,Values:,0.18,0.18,0.18,0.18,0.18,0.18,0.18,0.18,0.18,0.18,0.18,0.18,0.18,0.18,0.18,0.18,0.18,0.18,0.18,0.18,0.18,0.18,0.18,0.18
DaySchedule,BLDG_OCC_SCH_dy_1,FRACTION,No,Values:,0.00,0.00,0.00,0.00,0.00,0.00,0.00,0.00,0.70,0.70,0.70,0.70,0.70,0.70,0.70,0.70,0.15,0.15,0.15,0.15,0.15,0.00,0.00,0.00
DaySchedule,BLDG_OCC_SCH_dy_2,FRACTION,No,Values:,0.00,0.00,0.00,0.00,0.00,0.00,0.00,0.00,0.00,0.00,0.00,0.00,0.00,0.00,0.00,0.00,0.00,0.00,0.00,0.00,0.00,0.00,0.00,0.00
DaySchedule,BLDG_OCC_SCH_dy_3,FRACTION,No,Values:,0.00,0.00,0.00,0.00,0.00,0.00,0.00,0.00,0.15,0.15,0.15,0.15,0.15,0.15,0.15,0.15,0.15,0.15,0.15,0.15,0.15,0.00,0.00,0.00
DaySchedule,BLDG_OCC_SCH_dy_4,FRACTION,No,Values:,0.00,0.00,0.00,0.00,0.00,0.00,0.00,0.00,0.00,0.00,0.00,0.00,0.00,0.00,0.00,0.00,0.00,0.00,0.00,0.00,0.00,0.00,0.00,0.00
DaySchedule,BLDG_OCC_SCH_dy_5,FRACTION,No,Values:,0.00,0.00,0.00,0.00,0.00,0.00,0.00,0.00,0.70,0.70,0.70,0.70,0.70,0.70,0.70,0.70,0.15,0.15,0.15,0.15,0.15,0.00,0.00,0.00
DaySchedule,BLDG_OCC_SCH_dy_6,FRACTION,No,Values:,0.00,0.00,0.00,0.00,0.00,0.00,0.00,0.00,0.00,0.00,0.00,0.00,0.00,0.00,0.00,0.00,0.00,0.00,0.00,0.00,0.00,0.00,0.00,0.00
DaySchedule,BLDG_OCC_SCH_AUDITORIUM_dy_1,FRACTION,No,Values:,0.00,0.00,0.00,0.00,0.00,0.00,0.00,0.00,0.25,0.25,0.25,0.25,0.25,0.25,0.25,0.95,0.95,0.10,0.10,0.10,0.00,0.00,0.00,0.00
DaySchedule,BLDG_OCC_SCH_AUDITORIUM_dy_2,FRACTION,No,Values:,0.00,0.00,0.00,0.00,0.00,0.00,0.00,0.00,0.00,0.00,0.00,0.00,0.00,0.00,0.00,0.00,0.00,0.00,0.00,0.00,0.00,0.00,0.00,0.00
DaySchedule,BLDG_OCC_SCH_AUDITORIUM_dy_3,FRACTION,No,Values:,0.00,0.00,0.00,0.00,0.00,0.00,0.00,0.00,0.15,0.15,0.15,0.15,0.15,0.15,0.15,0.15,0.15,0.35,0.35,0.00,0.00,0.00,0.00,0.00
DaySchedule,BLDG_OCC_SCH_AUDITORIUM_dy_4,FRACTION,No,Values:,0.00,0.00,0.00,0.00,0.00,0.00,0.00,0.00,0.00,0.00,0.00,0.00,0.00,0.00,0.00,0.00,0.00,0.00,0.00,0.00,0.00,0.00,0.00,0.00
DaySchedule,BLDG_OCC_SCH_AUDITORIUM_dy_5,FRACTION,No,Values:,0.00,0.00,0.00,0.00,0.00,0.00,0.00,0.00,0.25,0.25,0.25,0.25,0.25,0.25,0.25,0.95,0.95,0.10,0.10,0.10,0.00,0.00,0.00,0.00
DaySchedule,BLDG_OCC_SCH_AUDITORIUM_dy_6,FRACTION,No,Values:,0.00,0.00,0.00,0.00,0.00,0.00,0.00,0.00,0.00,0.00,0.00,0.00,0.00,0.00,0.00,0.00,0.00,0.00,0.00,0.00,0.00,0.00,0.00,0.00
DaySchedule,BLDG_OCC_SCH_CAFETERIA_dy_1,FRACTION,No,Values:,0.00,0.00,0.00,0.00,0.00,0.00,0.00,0.15,0.15,5.00E-002,5.00E-002,0.95,0.95,0.15,0.15,0.00,0.00,0.00,0.00,0.00,0.00,0.00,0.00,0.00
DaySchedule,BLDG_OCC_SCH_CAFETERIA_dy_2,FRACTION,No,Values:,0.00,0.00,0.00,0.00,0.00,0.00,0.00,0.00,0.00,0.00,0.00,0.00,0.00,0.00,0.00,0.00,0.00,0.00,0.00,0.00,0.00,0.00,0.00,0.00
DaySchedule,BLDG_OCC_SCH_CAFETERIA_dy_3,FRACTION,No,Values:,0.00,0.00,0.00,0.00,0.00,0.00,0.00,0.00,0.00,0.25,0.25,0.25,0.25,0.25,0.25,0.00,0.00,0.00,0.00,0.00,0.00,0.00,0.00,0.00
DaySchedule,BLDG_OCC_SCH_CAFETERIA_dy_4,FRACTION,No,Values:,0.00,0.00,0.00,0.00,0.00,0.00,0.00,0.00,0.00,0.00,0.00,0.00,0.00,0.00,0.00,0.00,0.00,0.00,0.00,0.00,0.00,0.00,0.00,0.00
DaySchedule,BLDG_OCC_SCH_CAFETERIA_dy_5,FRACTION,No,Values:,0.00,0.00,0.00,0.00,0.00,0.00,0.00,0.15,0.15,5.00E-002,5.00E-002,0.95,0.95,0.15,0.15,0.00,0.00,0.00,0.00,0.00,0.00,0.00,0.00,0.00
DaySchedule,BLDG_OCC_SCH_CAFETERIA_dy_6,FRACTION,No,Values:,0.00,0.00,0.00,0.00,0.00,0.00,0.00,0.00,0.00,0.00,0.00,0.00,0.00,0.00,0.00,0.00,0.00,0.00,0.00,0.00,0.00,0.00,0.00,0.00
DaySchedule,BLDG_OCC_SCH_EXTEND_dy_1,FRACTION,No,Values:,0.00,0.00,0.00,0.00,0.00,0.00,0.00,0.00,0.70,0.70,0.70,0.70,0.70,0.70,0.70,0.70,0.70,0.70,0.70,0.70,0.70,0.00,0.00,0.00
DaySchedule,BLDG_OCC_SCH_EXTEND_dy_2,FRACTION,No,Values:,0.00,0.00,0.00,0.00,0.00,0.00,0.00,0.00,0.00,0.00,0.00,0.00,0.00,0.00,0.00,0.00,0.00,0.00,0.00,0.00,0.00,0.00,0.00,0.00
DaySchedule,BLDG_OCC_SCH_EXTEND_dy_3,FRACTION,No,Values:,0.00,0.00,0.00,0.00,0.00,0.00,0.00,0.00,0.50,0.50,0.50,0.50,0.50,0.50,0.50,0.50,0.50,0.50,0.50,0.50,0.50,0.00,0.00,0.00
DaySchedule,BLDG_OCC_SCH_EXTEND_dy_4,FRACTION,No,Values:,0.00,0.00,0.00,0.00,0.00,0.00,0.00,0.00,0.00,0.00,0.00,0.00,0.00,0.00,0.00,0.00,0.00,0.00,0.00,0.00,0.00,0.00,0.00,0.00
DaySchedule,BLDG_OCC_SCH_EXTEND_dy_5,FRACTION,No,Values:,0.00,0.00,0.00,0.00,0.00,0.00,0.00,0.00,0.70,0.70,0.70,0.70,0.70,0.70,0.70,0.70,0.70,0.70,0.70,0.70,0.70,0.00,0.00,0.00
DaySchedule,BLDG_OCC_SCH_EXTEND_dy_6,FRACTION,No,Values:,0.00,0.00,0.00,0.00,0.00,0.00,0.00,0.00,0.00,0.00,0.00,0.00,0.00,0.00,0.00,0.00,0.00,0.00,0.00,0.00,0.00,0.00,0.00,0.00
DaySchedule,BLDG_OCC_SCH_GYM_dy_1,FRACTION,No,Values:,0.00,0.00,0.00,0.00,0.00,0.00,0.00,0.00,0.35,0.35,0.35,0.35,0.35,0.35,0.35,0.35,0.95,0.95,0.95,0.95,0.95,0.00,0.00,0.00
DaySchedule,BLDG_OCC_SCH_GYM_dy_2,FRACTION,No,Values:,0.00,0.00,0.00,0.00,0.00,0.00,0.00,0.00,0.00,0.00,0.00,0.00,0.00,0.00,0.00,0.00,0.00,0.00,0.00,0.00,0.00,0.00,0.00,0.00
DaySchedule,BLDG_OCC_SCH_GYM_dy_3,FRACTION,No,Values:,0.00,0.00,0.00,0.00,0.00,0.00,0.00,0.00,0.35,0.35,0.35,0.35,0.35,0.35,0.35,0.35,0.35,0.35,0.35,0.35,0.35,0.00,0.00,0.00
DaySchedule,BLDG_OCC_SCH_GYM_dy_4,FRACTION,No,Values:,0.00,0.00,0.00,0.00,0.00,0.00,0.00,0.00,0.00,0.00,0.00,0.00,0.00,0.00,0.00,0.00,0.00,0.00,0.00,0.00,0.00,0.00,0.00,0.00
DaySchedule,BLDG_OCC_SCH_GYM_dy_5,FRACTION,No,Values:,0.00,0.00,0.00,0.00,0.00,0.00,0.00,0.00,0.35,0.35,0.35,0.35,0.35,0.35,0.35,0.35,0.95,0.95,0.95,0.95,0.95,0.00,0.00,0.00
DaySchedule,BLDG_OCC_SCH_GYM_dy_6,FRACTION,No,Values:,0.00,0.00,0.00,0.00,0.00,0.00,0.00,0.00,0.00,0.00,0.00,0.00,0.00,0.00,0.00,0.00,0.00,0.00,0.00,0.00,0.00,0.00,0.00,0.00
DaySchedule,BLDG_OCC_SCH_OFFICES_dy_1,FRACTION,No,Values:,0.00,0.00,0.00,0.00,0.00,0.00,0.00,0.00,0.95,0.95,0.95,0.95,0.95,0.95,0.95,0.95,0.95,0.15,0.15,0.15,0.15,0.00,0.00,0.00
DaySchedule,BLDG_OCC_SCH_OFFICES_dy_2,FRACTION,No,Values:,0.00,0.00,0.00,0.00,0.00,0.00,0.00,0.00,0.00,0.00,0.00,0.00,0.00,0.00,0.00,0.00,0.00,0.00,0.00,0.00,0.00,0.00,0.00,0.00
DaySchedule,BLDG_OCC_SCH_OFFICES_dy_3,FRACTION,No,Values:,0.00,0.00,0.00,0.00,0.00,0.00,0.00,0.00,0.50,0.50,0.50,0.50,0.50,0.50,0.50,0.50,0.50,0.00,0.00,0.00,0.00,0.00,0.00,0.00
DaySchedule,BLDG_OCC_SCH_OFFICES_dy_4,FRACTION,No,Values:,0.00,0.00,0.00,0.00,0.00,0.00,0.00,0.00,0.00,0.00,0.00,0.00,0.00,0.00,0.00,0.00,0.00,0.00,0.00,0.00,0.00,0.00,0.00,0.00
DaySchedule,BLDG_OCC_SCH_OFFICES_dy_5,FRACTION,No,Values:,0.00,0.00,0.00,0.00,0.00,0.00,0.00,0.00,0.95,0.95,0.95,0.95,0.95,0.95,0.95,0.95,0.95,0.15,0.15,0.15,0.15,0.00,0.00,0.00
DaySchedule,BLDG_OCC_SCH_OFFICES_dy_6,FRACTION,No,Values:,0.00,0.00,0.00,0.00,0.00,0.00,0.00,0.00,0.00,0.00,0.00,0.00,0.00,0.00,0.00,0.00,0.00,0.00,0.00,0.00,0.00,0.00,0.00,0.00
DaySchedule,KITCHEN_ELEC_EQUIP_SCH_dy_1,FRACTION,No,Values:,0.10,0.10,0.10,0.10,0.10,0.10,0.10,0.10,0.15,0.15,0.25,0.25,0.25,0.15,0.15,0.10,0.10,0.10,0.10,0.10,0.10,0.10,0.10,0.10
DaySchedule,KITCHEN_ELEC_EQUIP_SCH_dy_2,FRACTION,No,Values:,0.10,0.10,0.10,0.10,0.10,0.10,0.10,0.10,0.10,0.10,0.10,0.10,0.10,0.10,0.10,0.10,0.10,0.10,0.10,0.10,0.10,0.10,0.10,0.10
DaySchedule,KITCHEN_ELEC_EQUIP_SCH_dy_3,FRACTION,No,Values:,0.10,0.10,0.10,0.10,0.10,0.10,0.10,0.10,0.13,0.13,0.20,0.20,0.20,0.13,0.13,0.10,0.10,0.10,0.10,0.10,0.10,0.10,0.10,0.10
DaySchedule,KITCHEN_ELEC_EQUIP_SCH_dy_4,FRACTION,No,Values:,0.10,0.10,0.10,0.10,0.10,0.10,0.10,0.10,0.10,0.10,0.10,0.10,0.10,0.10,0.10,0.10,0.10,0.10,0.10,0.10,0.10,0.10,0.10,0.10
DaySchedule,KITCHEN_ELEC_EQUIP_SCH_dy_5,FRACTION,No,Values:,0.10,0.10,0.10,0.10,0.10,0.10,0.10,0.10,0.15,0.15,0.25,0.25,0.25,0.15,0.15,0.10,0.10,0.10,0.10,0.10,0.10,0.10,0.10,0.10
DaySchedule,KITCHEN_ELEC_EQUIP_SCH_dy_6,FRACTION,No,Values:,0.10,0.10,0.10,0.10,0.10,0.10,0.10,0.10,0.10,0.10,0.10,0.10,0.10,0.10,0.10,0.10,0.10,0.10,0.10,0.10,0.10,0.10,0.10,0.10
DaySchedule,KITCHEN_GAS_EQUIP_SCH_dy_1,FRACTION,No,Values:,2.00E-002,2.00E-002,2.00E-002,2.00E-002,2.00E-002,2.00E-002,2.00E-002,2.00E-002,0.15,0.15,0.20,0.20,0.20,0.10,0.10,2.00E-002,2.00E-002,2.00E-002,2.00E-002,2.00E-002,2.00E-002,2.00E-002,2.00E-002,2.00E-002
DaySchedule,KITCHEN_GAS_EQUIP_SCH_dy_2,FRACTION,No,Values:,2.00E-002,2.00E-002,2.00E-002,2.00E-002,2.00E-002,2.00E-002,2.00E-002,2.00E-002,2.00E-002,2.00E-002,2.00E-002,2.00E-002,2.00E-002,2.00E-002,2.00E-002,2.00E-002,2.00E-002,2.00E-002,2.00E-002,2.00E-002,2.00E-002,2.00E-002,2.00E-002,2.00E-002
DaySchedule,KITCHEN_GAS_EQUIP_SCH_dy_3,FRACTION,No,Values:,2.00E-002,2.00E-002,2.00E-002,2.00E-002,2.00E-002,2.00E-002,2.00E-002,2.00E-002,0.10,0.10,0.15,0.15,0.15,0.10,0.10,2.00E-002,2.00E-002,2.00E-002,2.00E-002,2.00E-002,2.00E-002,2.00E-002,2.00E-002,2.00E-002
DaySchedule,KITCHEN_GAS_EQUIP_SCH_dy_4,FRACTION,No,Values:,2.00E-002,2.00E-002,2.00E-002,2.00E-002,2.00E-002,2.00E-002,2.00E-002,2.00E-002,2.00E-002,2.00E-002,2.00E-002,2.00E-002,2.00E-002,2.00E-002,2.00E-002,2.00E-002,2.00E-002,2.00E-002,2.00E-002,2.00E-002,2.00E-002,2.00E-002,2.00E-002,2.00E-002
DaySchedule,KITCHEN_GAS_EQUIP_SCH_dy_5,FRACTION,No,Values:,2.00E-002,2.00E-002,2.00E-002,2.00E-002,2.00E-002,2.00E-002,2.00E-002,2.00E-002,0.15,0.15,0.20,0.20,0.20,0.10,0.10,2.00E-002,2.00E-002,2.00E-002,2.00E-002,2.00E-002,2.00E-002,2.00E-002,2.00E-002,2.00E-002
DaySchedule,KITCHEN_GAS_EQUIP_SCH_dy_6,FRACTION,No,Values:,2.00E-002,2.00E-002,2.00E-002,2.00E-002,2.00E-002,2.00E-002,2.00E-002,2.00E-002,2.00E-002,2.00E-002,2.00E-002,2.00E-002,2.00E-002,2.00E-002,2.00E-002,2.00E-002,2.00E-002,2.00E-002,2.00E-002,2.00E-002,2.00E-002,2.00E-002,2.00E-002,2.00E-002
DaySchedule,INFIL_SCH_dy_1,FRACTION,No,Values:,1.00,1.00,1.00,1.00,1.00,1.00,1.00,0.50,0.50,0.50,0.50,0.50,0.50,0.50,0.50,0.50,0.50,0.50,0.50,0.50,0.50,1.00,1.00,1.00
DaySchedule,ACTIVITY_SCH_dy_1,ANY NUMBER,No,Values:,120.00,120.00,120.00,120.00,120.00,120.00,120.00,120.00,120.00,120.00,120.00,120.00,120.00,120.00,120.00,120.00,120.00,120.00,120.00,120.00,120.00,120.00,120.00,120.00
DaySchedule,AIR_VELO_SCH_dy_1,ANY NUMBER,No,Values:,0.20,0.20,0.20,0.20,0.20,0.20,0.20,0.20,0.20,0.20,0.20,0.20,0.20,0.20,0.20,0.20,0.20,0.20,0.20,0.20,0.20,0.20,0.20,0.20
DaySchedule,CLOTHING_SCH_dy_1,ANY NUMBER,No,Values:,1.10,1.10,1.10,1.10,1.10,1.10,1.10,1.10,1.10,1.10,1.10,1.10,1.10,1.10,1.10,1.10,1.10,1.10,1.10,1.10,1.10,1.10,1.10,1.10
DaySchedule,CLOTHING_SCH_dy_2,ANY NUMBER,No,Values:,0.60,0.60,0.60,0.60,0.60,0.60,0.60,0.60,0.60,0.60,0.60,0.60,0.60,0.60,0.60,0.60,0.60,0.60,0.60,0.60,0.60,0.60,0.60,0.60
DaySchedule,CLOTHING_SCH_dy_3,ANY NUMBER,No,Values:,1.10,1.10,1.10,1.10,1.10,1.10,1.10,1.10,1.10,1.10,1.10,1.10,1.10,1.10,1.10,1.10,1.10,1.10,1.10,1.10,1.10,1.10,1.10,1.10
DaySchedule,WORK_EFF_SCH_dy_1,FRACTION,No,Values:,0.00,0.00,0.00,0.00,0.00,0.00,0.00,0.00,0.00,0.00,0.00,0.00,0.00,0.00,0.00,0.00,0.00,0.00,0.00,0.00,0.00,0.00,0.00,0.00
DaySchedule,CLGSETP_SCH_dy_1,TEMPERATURE,No,Values:,24.00,24.00,24.00,24.00,24.00,24.00,24.00,24.00,24.00,24.00,24.00,24.00,24.00,24.00,24.00,24.00,24.00,24.00,24.00,24.00,24.00,24.00,24.00,24.00
DaySchedule,CLGSETP_SCH_dy_2,TEMPERATURE,No,Values:,27.00,27.00,27.00,27.00,27.00,27.00,27.00,27.00,27.00,27.00,27.00,27.00,27.00,27.00,27.00,27.00,27.00,27.00,27.00,27.00,27.00,27.00,27.00,27.00
DaySchedule,CLGSETP_SCH_dy_3,TEMPERATURE,No,Values:,27.00,27.00,27.00,27.00,27.00,27.00,24.00,24.00,24.00,24.00,24.00,24.00,24.00,24.00,24.00,24.00,24.00,24.00,24.00,24.00,24.00,27.00,27.00,27.00
DaySchedule,CLGSETP_SCH_dy_4,TEMPERATURE,No,Values:,24.00,24.00,24.00,24.00,24.00,24.00,24.00,24.00,24.00,24.00,24.00,24.00,24.00,24.00,24.00,24.00,24.00,24.00,24.00,24.00,24.00,24.00,24.00,24.00
DaySchedule,CLGSETP_SCH_dy_5,TEMPERATURE,No,Values:,27.00,27.00,27.00,27.00,27.00,27.00,27.00,27.00,27.00,27.00,27.00,27.00,27.00,27.00,27.00,27.00,27.00,27.00,27.00,27.00,27.00,27.00,27.00,27.00
DaySchedule,CLGSETP_SCH_dy_6,TEMPERATURE,No,Values:,27.00,27.00,27.00,27.00,27.00,27.00,27.00,24.00,24.00,24.00,24.00,24.00,24.00,24.00,24.00,24.00,24.00,24.00,27.00,27.00,27.00,27.00,27.00,27.00
DaySchedule,CLGSETP_SCH_dy_7,TEMPERATURE,No,Values:,24.00,24.00,24.00,24.00,24.00,24.00,24.00,24.00,24.00,24.00,24.00,24.00,24.00,24.00,24.00,24.00,24.00,24.00,24.00,24.00,24.00,24.00,24.00,24.00
DaySchedule,CLGSETP_SCH_dy_8,TEMPERATURE,No,Values:,27.00,27.00,27.00,27.00,27.00,27.00,27.00,27.00,27.00,27.00,27.00,27.00,27.00,27.00,27.00,27.00,27.00,27.00,27.00,27.00,27.00,27.00,27.00,27.00
DaySchedule,CLGSETP_SCH_dy_9,TEMPERATURE,No,Values:,27.00,27.00,27.00,27.00,27.00,27.00,24.00,24.00,24.00,24.00,24.00,24.00,24.00,24.00,24.00,24.00,24.00,24.00,24.00,24.00,24.00,27.00,27.00,27.00
DaySchedule,CLGSETP_SCH_BATHCORRMECHKITCHEN_dy_1,TEMPERATURE,No,Values:,27.00,27.00,27.00,27.00,27.00,27.00,24.00,24.00,24.00,24.00,24.00,24.00,24.00,24.00,24.00,24.00,24.00,24.00,24.00,24.00,24.00,27.00,27.00,27.00
DaySchedule,CLGSETP_SCH_BATHCORRMECHKITCHEN_dy_2,TEMPERATURE,No,Values:,27.00,27.00,27.00,27.00,27.00,27.00,27.00,27.00,27.00,27.00,27.00,27.00,27.00,27.00,27.00,27.00,27.00,27.00,27.00,27.00,27.00,27.00,27.00,27.00
DaySchedule,HTGSETP_SCH_dy_1,TEMPERATURE,No,Values:,21.00,21.00,21.00,21.00,21.00,21.00,21.00,21.00,21.00,21.00,21.00,21.00,21.00,21.00,21.00,21.00,21.00,21.00,21.00,21.00,21.00,21.00,21.00,21.00
DaySchedule,HTGSETP_SCH_dy_2,TEMPERATURE,No,Values:,16.00,16.00,16.00,16.00,16.00,16.00,16.00,16.00,16.00,16.00,16.00,16.00,16.00,16.00,16.00,16.00,16.00,16.00,16.00,16.00,16.00,16.00,16.00,16.00
DaySchedule,HTGSETP_SCH_dy_3,TEMPERATURE,No,Values:,16.00,16.00,16.00,16.00,16.00,16.00,21.00,21.00,21.00,21.00,21.00,21.00,21.00,21.00,21.00,21.00,21.00,21.00,21.00,21.00,21.00,16.00,16.00,16.00
DaySchedule,HTGSETP_SCH_dy_4,TEMPERATURE,No,Values:,21.00,21.00,21.00,21.00,21.00,21.00,21.00,21.00,21.00,21.00,21.00,21.00,21.00,21.00,21.00,21.00,21.00,21.00,21.00,21.00,21.00,21.00,21.00,21.00
DaySchedule,HTGSETP_SCH_dy_5,TEMPERATURE,No,Values:,16.00,16.00,16.00,16.00,16.00,16.00,16.00,16.00,16.00,16.00,16.00,16.00,16.00,16.00,16.00,16.00,16.00,16.00,16.00,16.00,16.00,16.00,16.00,16.00
DaySchedule,HTGSETP_SCH_dy_6,TEMPERATURE,No,Values:,16.00,16.00,16.00,16.00,16.00,16.00,16.00,21.00,21.00,21.00,21.00,21.00,21.00,21.00,21.00,21.00,21.00,21.00,16.00,16.00,16.00,16.00,16.00,16.00
DaySchedule,HTGSETP_SCH_dy_7,TEMPERATURE,No,Values:,21.00,21.00,21.00,21.00,21.00,21.00,21.00,21.00,21.00,21.00,21.00,21.00,21.00,21.00,21.00,21.00,21.00,21.00,21.00,21.00,21.00,21.00,21.00,21.00
DaySchedule,HTGSETP_SCH_dy_8,TEMPERATURE,No,Values:,16.00,16.00,16.00,16.00,16.00,16.00,16.00,16.00,16.00,16.00,16.00,16.00,16.00,16.00,16.00,16.00,16.00,16.00,16.00,16.00,16.00,16.00,16.00,16.00
DaySchedule,HTGSETP_SCH_dy_9,TEMPERATURE,No,Values:,16.00,16.00,16.00,16.00,16.00,16.00,21.00,21.00,21.00,21.00,21.00,21.00,21.00,21.00,21.00,21.00,21.00,21.00,21.00,21.00,21.00,16.00,16.00,16.00
DaySchedule,HTGSETP_SCH_BATHCORRMECHKITCHEN_dy_1,TEMPERATURE,No,Values:,16.00,16.00,16.00,16.00,16.00,16.00,21.00,21.00,21.00,21.00,21.00,21.00,21.00,21.00,21.00,21.00,21.00,21.00,21.00,21.00,21.00,16.00,16.00,16.00
DaySchedule,HTGSETP_SCH_BATHCORRMECHKITCHEN_dy_2,TEMPERATURE,No,Values:,16.00,16.00,16.00,16.00,16.00,16.00,16.00,16.00,16.00,16.00,16.00,16.00,16.00,16.00,16.00,16.00,16.00,16.00,16.00,16.00,16.00,16.00,16.00,16.00
DaySchedule,HVACOPERATIONSCHD_dy_1,ON/OFF,No,Values:,0.00,0.00,0.00,0.00,0.00,0.00,1.00,1.00,1.00,1.00,1.00,1.00,1.00,1.00,1.00,1.00,1.00,1.00,1.00,1.00,1.00,0.00,0.00,0.00
DaySchedule,HVACOPERATIONSCHD_dy_2,ON/OFF,No,Values:,0.00,0.00,0.00,0.00,0.00,0.00,0.00,0.00,0.00,0.00,0.00,0.00,0.00,0.00,0.00,0.00,0.00,0.00,0.00,0.00,0.00,0.00,0.00,0.00
DaySchedule,MINOA_SCHED_dy_1,ON/OFF,No,Values:,0.00,0.00,0.00,0.00,0.00,0.00,1.00,1.00,1.00,1.00,1.00,1.00,1.00,1.00,1.00,1.00,1.00,1.00,1.00,1.00,1.00,0.00,0.00,0.00
DaySchedule,MINOA_SCHED_dy_2,ON/OFF,No,Values:,0.00,0.00,0.00,0.00,0.00,0.00,0.00,0.00,0.00,0.00,0.00,0.00,0.00,0.00,0.00,0.00,0.00,0.00,0.00,0.00,0.00,0.00,0.00,0.00
DaySchedule,SEASONAL-RESET-SUPPLY-AIR-TEMP-SCH_dy_1,TEMPERATURE,No,Values:,12.80,12.80,12.80,12.80,12.80,12.80,12.80,12.80,12.80,12.80,12.80,12.80,12.80,12.80,12.80,12.80,12.80,12.80,12.80,12.80,12.80,12.80,12.80,12.80
DaySchedule,DUAL ZONE CONTROL TYPE SCHED_dy_1,CONTROL TYPE,No,Values:,4.00,4.00,4.00,4.00,4.00,4.00,4.00,4.00,4.00,4.00,4.00,4.00,4.00,4.00,4.00,4.00,4.00,4.00,4.00,4.00,4.00,4.00,4.00,4.00
DaySchedule,CW-LOOP-TEMP-SCHEDULE_dy_1,TEMPERATURE,No,Values:,6.70,6.70,6.70,6.70,6.70,6.70,6.70,6.70,6.70,6.70,6.70,6.70,6.70,6.70,6.70,6.70,6.70,6.70,6.70,6.70,6.70,6.70,6.70,6.70
DaySchedule,HW-LOOP-TEMP-SCHEDULE_dy_1,TEMPERATURE,No,Values:,67.00,67.00,67.00,67.00,67.00,67.00,67.00,67.00,67.00,67.00,67.00,67.00,67.00,67.00,67.00,67.00,67.00,67.00,67.00,67.00,67.00,67.00,67.00,67.00
DaySchedule,PLANTONSCHED_dy_1,ANY NUMBER,No,Values:,1.00,1.00,1.00,1.00,1.00,1.00,1.00,1.00,1.00,1.00,1.00,1.00,1.00,1.00,1.00,1.00,1.00,1.00,1.00,1.00,1.00,1.00,1.00,1.00
DaySchedule,KITCHEN_ZN_1_FLR_1_CASE:1_WALKINFREEZER_CASECREDITREDUXSCHED_dy_1,FRACTION,No,Values:,0.20,0.20,0.20,0.20,0.20,0.20,0.20,0.40,0.40,0.40,0.40,0.40,0.40,0.40,0.40,0.40,0.40,0.40,0.40,0.40,0.40,0.20,0.20,0.20
DaySchedule,KITCHEN_ZN_1_FLR_1_CASE:1_WALKINFREEZER_CASEDEFROST2ADAYSCHED_dy_1,ON/OFF,Average,Values:,0.00,0.00,0.00,0.00,0.00,0.00,0.00,0.00,0.00,0.00,0.00,0.00,0.00,0.00,0.00,0.00,0.00,0.00,0.00,0.00,0.00,0.00,0.00,0.00
DaySchedule,KITCHEN_ZN_1_FLR_1_CASE:1_WALKINFREEZER_CASEDRIPDOWN2ADAYSCHED_dy_1,ON/OFF,Average,Values:,0.00,0.00,0.00,0.00,0.00,0.00,0.00,0.00,0.00,0.00,0.00,0.00,0.00,0.00,0.00,0.00,0.00,0.00,0.00,0.00,0.00,0.00,0.00,0.00
DaySchedule,KITCHEN_ZN_1_FLR_1_CASE:1_WALKINFREEZER_WALKINSTOCKINGSCHED_dy_1,ANY NUMBER,No,Values:,0.00,0.00,0.00,0.00,725.00,417.00,290.00,0.00,0.00,0.00,0.00,0.00,0.00,0.00,0.00,0.00,0.00,0.00,0.00,0.00,0.00,0.00,0.00,0.00
DaySchedule,KITCHEN_ZN_1_FLR_1_CASE:1_WALKINFREEZER_WALKINSTOCKINGSCHED_dy_2,ANY NUMBER,No,Values:,0.00,0.00,0.00,0.00,125.00,117.00,90.00,0.00,0.00,0.00,0.00,0.00,0.00,0.00,0.00,0.00,0.00,0.00,0.00,125.00,117.00,90.00,0.00,0.00
DaySchedule,KITCHEN_ZN_1_FLR_1_CASE:2_SELFCONTAINEDDISPLAYCASE_CASESTOCKINGSCHED_dy_1,ANY NUMBER,No,Values:,0.00,0.00,0.00,0.00,0.00,0.00,50.00,70.00,70.00,80.00,70.00,50.00,50.00,80.00,90.00,80.00,0.00,0.00,0.00,0.00,0.00,0.00,0.00,0.00
DaySchedule,BLDG_SWH_SCH_dy_1,FRACTION,No,Values:,5.00E-002,5.00E-002,5.00E-002,5.00E-002,5.00E-002,5.00E-002,5.00E-002,0.10,0.34,0.60,0.63,0.72,0.79,0.83,0.61,0.65,0.10,0.10,0.19,0.25,0.22,0.22,0.12,9.00E-002
DaySchedule,BLDG_SWH_SCH_dy_2,FRACTION,No,Values:,3.00E-002,3.00E-002,3.00E-002,3.00E-002,3.00E-002,3.00E-002,3.00E-002,3.00E-002,3.00E-002,5.00E-002,5.00E-002,5.00E-002,5.00E-002,3.00E-002,3.00E-002,3.00E-002,3.00E-002,3.00E-002,3.00E-002,3.00E-002,3.00E-002,3.00E-002,3.00E-002,3.00E-002
DaySchedule,BLDG_SWH_SCH_dy_3,FRACTION,No,Values:,3.00E-002,3.00E-002,3.00E-002,3.00E-002,3.00E-002,3.00E-002,3.00E-002,3.00E-002,5.00E-002,5.00E-002,5.00E-002,5.00E-002,5.00E-002,5.00E-002,3.00E-002,3.00E-002,3.00E-002,3.00E-002,3.00E-002,3.00E-002,3.00E-002,3.00E-002,3.00E-002,3.00E-002
DaySchedule,BLDG_SWH_SCH_dy_4,FRACTION,No,Values:,5.00E-002,5.00E-002,5.00E-002,5.00E-002,5.00E-002,5.00E-002,5.00E-002,0.10,0.10,0.10,0.10,0.10,0.10,0.10,0.10,0.10,0.10,0.10,0.19,0.25,0.22,0.22,0.12,9.00E-002
DaySchedule,BLDG_SWH_SCH_dy_5,FRACTION,No,Values:,3.00E-002,3.00E-002,3.00E-002,3.00E-002,3.00E-002,3.00E-002,3.00E-002,3.00E-002,3.00E-002,5.00E-002,5.00E-002,5.00E-002,5.00E-002,3.00E-002,3.00E-002,3.00E-002,3.00E-002,3.00E-002,3.00E-002,3.00E-002,3.00E-002,3.00E-002,3.00E-002,3.00E-002
DaySchedule,BLDG_SWH_SCH_dy_6,FRACTION,No,Values:,3.00E-002,3.00E-002,3.00E-002,3.00E-002,3.00E-002,3.00E-002,3.00E-002,3.00E-002,5.00E-002,5.00E-002,5.00E-002,5.00E-002,5.00E-002,5.00E-002,3.00E-002,3.00E-002,3.00E-002,3.00E-002,3.00E-002,3.00E-002,3.00E-002,3.00E-002,3.00E-002,3.00E-002
DaySchedule,BLDG_SWH_SCH_dy_7,FRACTION,No,Values:,5.00E-002,5.00E-002,5.00E-002,5.00E-002,5.00E-002,5.00E-002,5.00E-002,0.10,0.34,0.60,0.63,0.72,0.79,0.83,0.61,0.65,0.10,0.10,0.19,0.25,0.22,0.22,0.12,9.00E-002
DaySchedule,BLDG_SWH_SCH_dy_8,FRACTION,No,Values:,3.00E-002,3.00E-002,3.00E-002,3.00E-002,3.00E-002,3.00E-002,3.00E-002,3.00E-002,3.00E-002,5.00E-002,5.00E-002,5.00E-002,5.00E-002,3.00E-002,3.00E-002,3.00E-002,3.00E-002,3.00E-002,3.00E-002,3.00E-002,3.00E-002,3.00E-002,3.00E-002,3.00E-002
DaySchedule,BLDG_SWH_SCH_dy_9,FRACTION,No,Values:,3.00E-002,3.00E-002,3.00E-002,3.00E-002,3.00E-002,3.00E-002,3.00E-002,3.00E-002,5.00E-002,5.00E-002,5.00E-002,5.00E-002,5.00E-002,5.00E-002,3.00E-002,3.00E-002,3.00E-002,3.00E-002,3.00E-002,3.00E-002,3.00E-002,3.00E-002,3.00E-002,3.00E-002
DaySchedule,SHOWERS_SWH_SCH_dy_1,FRACTION,No,Values:,0.00,0.00,0.00,0.00,0.00,0.00,0.00,0.60,0.50,0.50,0.50,0.50,0.50,0.50,0.50,0.50,1.00,1.00,1.00,0.00,0.00,0.00,0.00,0.00
DaySchedule,SHOWERS_SWH_SCH_dy_2,FRACTION,No,Values:,0.00,0.00,0.00,0.00,0.00,0.00,0.00,0.00,0.00,0.00,0.40,0.14,0.14,0.14,0.14,0.14,0.00,0.00,0.00,0.00,0.00,0.80,0.00,0.00
DaySchedule,SHOWERS_SWH_SCH_dy_3,FRACTION,No,Values:,0.00,0.00,0.00,0.00,0.00,0.00,0.00,0.00,0.00,0.00,0.00,0.00,0.00,0.00,0.00,0.00,0.00,0.00,0.00,0.00,0.00,0.00,0.00,0.00
DaySchedule,SHOWERS_SWH_SCH_dy_4,FRACTION,No,Values:,0.00,0.00,0.00,0.00,0.00,0.00,0.00,0.00,0.30,0.10,0.10,0.10,0.10,0.10,0.10,0.10,0.00,0.00,0.00,0.00,0.00,0.00,0.00,0.00
DaySchedule,SHOWERS_SWH_SCH_dy_5,FRACTION,No,Values:,0.00,0.00,0.00,0.00,0.00,0.00,0.00,0.00,0.00,0.00,0.00,0.00,0.00,0.00,0.00,0.00,0.00,0.00,0.00,0.00,0.00,0.00,0.00,0.00
DaySchedule,SHOWERS_SWH_SCH_dy_6,FRACTION,No,Values:,0.00,0.00,0.00,0.00,0.00,0.00,0.00,0.60,0.50,0.50,0.50,0.50,0.50,0.50,0.50,0.50,1.00,1.00,1.00,0.00,0.00,0.00,0.00,0.00
DaySchedule,SHOWERS_SWH_SCH_dy_7,FRACTION,No,Values:,0.00,0.00,0.00,0.00,0.00,0.00,0.00,0.00,0.00,0.00,0.40,0.14,0.14,0.14,0.14,0.14,0.00,0.00,0.00,0.00,0.00,0.80,0.00,0.00
DaySchedule,SHOWERS_SWH_SCH_dy_8,FRACTION,No,Values:,0.00,0.00,0.00,0.00,0.00,0.00,0.00,0.00,0.00,0.00,0.00,0.00,0.00,0.00,0.00,0.00,0.00,0.00,0.00,0.00,0.00,0.00,0.00,0.00
DaySchedule,LATENT FRACT SCHED_dy_1,FRACTION,No,Values:,5.00E-002,5.00E-002,5.00E-002,5.00E-002,5.00E-002,5.00E-002,5.00E-002,5.00E-002,5.00E-002,5.00E-002,5.00E-002,5.00E-002,5.00E-002,5.00E-002,5.00E-002,5.00E-002,5.00E-002,5.00E-002,5.00E-002,5.00E-002,5.00E-002,5.00E-002,5.00E-002,5.00E-002
DaySchedule,SENSIBLE FRACT SCHED_dy_1,FRACTION,No,Values:,0.20,0.20,0.20,0.20,0.20,0.20,0.20,0.20,0.20,0.20,0.20,0.20,0.20,0.20,0.20,0.20,0.20,0.20,0.20,0.20,0.20,0.20,0.20,0.20
DaySchedule,HOT SUPPLY TEMP SCHED_dy_1,TEMPERATURE,No,Values:,43.30,43.30,43.30,43.30,43.30,43.30,43.30,43.30,43.30,43.30,43.30,43.30,43.30,43.30,43.30,43.30,43.30,43.30,43.30,43.30,43.30,43.30,43.30,43.30
DaySchedule,SHW_DEFAULT TEMP SCHED_dy_1,TEMPERATURE,No,Values:,43.30,43.30,43.30,43.30,43.30,43.30,43.30,43.30,43.30,43.30,43.30,43.30,43.30,43.30,43.30,43.30,43.30,43.30,43.30,43.30,43.30,43.30,43.30,43.30
DaySchedule,KITCHEN HOT SUPPLY TEMP SCHED_dy_1,TEMPERATURE,No,Values:,49.00,49.00,49.00,49.00,49.00,49.00,49.00,49.00,49.00,49.00,49.00,49.00,49.00,49.00,49.00,49.00,49.00,49.00,49.00,49.00,49.00,49.00,49.00,49.00
DaySchedule,SHW_KITCHEN TEMP SCHED_dy_1,TEMPERATURE,No,Values:,49.00,49.00,49.00,49.00,49.00,49.00,49.00,49.00,49.00,49.00,49.00,49.00,49.00,49.00,49.00,49.00,49.00,49.00,49.00,49.00,49.00,49.00,49.00,49.00
DaySchedule,SWHSYS1 WATER HEATER AMBIENT TEMPERATURE SCHEDULE NAME_dy_1,TEMPERATURE,No,Values:,22.00,22.00,22.00,22.00,22.00,22.00,22.00,22.00,22.00,22.00,22.00,22.00,22.00,22.00,22.00,22.00,22.00,22.00,22.00,22.00,22.00,22.00,22.00,22.00
DaySchedule,SWHSYS1 WATER HEATER SETPOINT TEMPERATURE SCHEDULE NAME_dy_1,TEMPERATURE,No,Values:,60.00,60.00,60.00,60.00,60.00,60.00,60.00,60.00,60.00,60.00,60.00,60.00,60.00,60.00,60.00,60.00,60.00,60.00,60.00,60.00,60.00,60.00,60.00,60.00
DaySchedule,SWHSYS1-LOOP-TEMP-SCHEDULE_dy_1,TEMPERATURE,No,Values:,60.00,60.00,60.00,60.00,60.00,60.00,60.00,60.00,60.00,60.00,60.00,60.00,60.00,60.00,60.00,60.00,60.00,60.00,60.00,60.00,60.00,60.00,60.00,60.00
Schedule:Week:Daily,ALWAYS_ON_wk_1,ALWAYS_ON_dy_1,ALWAYS_ON_dy_1,ALWAYS_ON_dy_1,ALWAYS_ON_dy_1,ALWAYS_ON_dy_1,ALWAYS_ON_dy_1,ALWAYS_ON_dy_1,ALWAYS_ON_dy_1,ALWAYS_ON_dy_1,ALWAYS_ON_dy_1,ALWAYS_ON_dy_1,ALWAYS_ON_dy_1
Schedule:Week:Daily,KITCHEN_EXHAUST_SCH_wk_1,KITCHEN_EXHAUST_SCH_dy_2,KITCHEN_EXHAUST_SCH_dy_1,KITCHEN_EXHAUST_SCH_dy_1,KITCHEN_EXHAUST_SCH_dy_1,KITCHEN_EXHAUST_SCH_dy_1,KITCHEN_EXHAUST_SCH_dy_1,KITCHEN_EXHAUST_SCH_dy_2,KITCHEN_EXHAUST_SCH_dy_2,KITCHEN_EXHAUST_SCH_dy_1,KITCHEN_EXHAUST_SCH_dy_2,KITCHEN_EXHAUST_SCH_dy_2,KITCHEN_EXHAUST_SCH_dy_2
Schedule:Week:Daily,BLDG_ELEVATORS_wk_1,BLDG_ELEVATORS_dy_2,BLDG_ELEVATORS_dy_1,BLDG_ELEVATORS_dy_1,BLDG_ELEVATORS_dy_1,BLDG_ELEVATORS_dy_1,BLDG_ELEVATORS_dy_1,BLDG_ELEVATORS_dy_2,BLDG_ELEVATORS_dy_2,BLDG_ELEVATORS_dy_1,BLDG_ELEVATORS_dy_2,BLDG_ELEVATORS_dy_2,BLDG_ELEVATORS_dy_2
Schedule:Week:Daily,BLDG_EQUIP_SCH_wk_1,BLDG_EQUIP_SCH_dy_2,BLDG_EQUIP_SCH_dy_1,BLDG_EQUIP_SCH_dy_1,BLDG_EQUIP_SCH_dy_1,BLDG_EQUIP_SCH_dy_1,BLDG_EQUIP_SCH_dy_1,BLDG_EQUIP_SCH_dy_2,BLDG_EQUIP_SCH_dy_2,BLDG_EQUIP_SCH_dy_1,BLDG_EQUIP_SCH_dy_2,BLDG_EQUIP_SCH_dy_2,BLDG_EQUIP_SCH_dy_2
Schedule:Week:Daily,BLDG_EQUIP_SCH_wk_2,BLDG_EQUIP_SCH_dy_4,BLDG_EQUIP_SCH_dy_3,BLDG_EQUIP_SCH_dy_3,BLDG_EQUIP_SCH_dy_3,BLDG_EQUIP_SCH_dy_3,BLDG_EQUIP_SCH_dy_3,BLDG_EQUIP_SCH_dy_4,BLDG_EQUIP_SCH_dy_4,BLDG_EQUIP_SCH_dy_3,BLDG_EQUIP_SCH_dy_4,BLDG_EQUIP_SCH_dy_4,BLDG_EQUIP_SCH_dy_4
Schedule:Week:Daily,BLDG_EQUIP_SCH_wk_3,BLDG_EQUIP_SCH_dy_6,BLDG_EQUIP_SCH_dy_5,BLDG_EQUIP_SCH_dy_5,BLDG_EQUIP_SCH_dy_5,BLDG_EQUIP_SCH_dy_5,BLDG_EQUIP_SCH_dy_5,BLDG_EQUIP_SCH_dy_6,BLDG_EQUIP_SCH_dy_6,BLDG_EQUIP_SCH_dy_5,BLDG_EQUIP_SCH_dy_6,BLDG_EQUIP_SCH_dy_6,BLDG_EQUIP_SCH_dy_6
Schedule:Week:Daily,BLDG_LIGHT_SCH_wk_1,BLDG_LIGHT_SCH_dy_2,BLDG_LIGHT_SCH_dy_1,BLDG_LIGHT_SCH_dy_1,BLDG_LIGHT_SCH_dy_1,BLDG_LIGHT_SCH_dy_1,BLDG_LIGHT_SCH_dy_1,BLDG_LIGHT_SCH_dy_2,BLDG_LIGHT_SCH_dy_2,BLDG_LIGHT_SCH_dy_1,BLDG_LIGHT_SCH_dy_2,BLDG_LIGHT_SCH_dy_2,BLDG_LIGHT_SCH_dy_2
Schedule:Week:Daily,BLDG_LIGHT_SCH_wk_2,BLDG_LIGHT_SCH_dy_4,BLDG_LIGHT_SCH_dy_3,BLDG_LIGHT_SCH_dy_3,BLDG_LIGHT_SCH_dy_3,BLDG_LIGHT_SCH_dy_3,BLDG_LIGHT_SCH_dy_3,BLDG_LIGHT_SCH_dy_4,BLDG_LIGHT_SCH_dy_4,BLDG_LIGHT_SCH_dy_3,BLDG_LIGHT_SCH_dy_4,BLDG_LIGHT_SCH_dy_4,BLDG_LIGHT_SCH_dy_4
Schedule:Week:Daily,BLDG_LIGHT_SCH_wk_3,BLDG_LIGHT_SCH_dy_6,BLDG_LIGHT_SCH_dy_5,BLDG_LIGHT_SCH_dy_5,BLDG_LIGHT_SCH_dy_5,BLDG_LIGHT_SCH_dy_5,BLDG_LIGHT_SCH_dy_5,BLDG_LIGHT_SCH_dy_6,BLDG_LIGHT_SCH_dy_6,BLDG_LIGHT_SCH_dy_5,BLDG_LIGHT_SCH_dy_6,BLDG_LIGHT_SCH_dy_6,BLDG_LIGHT_SCH_dy_6
Schedule:Week:Daily,BLDG_OCC_SCH_wk_1,BLDG_OCC_SCH_dy_2,BLDG_OCC_SCH_dy_1,BLDG_OCC_SCH_dy_1,BLDG_OCC_SCH_dy_1,BLDG_OCC_SCH_dy_1,BLDG_OCC_SCH_dy_1,BLDG_OCC_SCH_dy_2,BLDG_OCC_SCH_dy_2,BLDG_OCC_SCH_dy_1,BLDG_OCC_SCH_dy_2,BLDG_OCC_SCH_dy_2,BLDG_OCC_SCH_dy_2
Schedule:Week:Daily,BLDG_OCC_SCH_wk_2,BLDG_OCC_SCH_dy_4,BLDG_OCC_SCH_dy_3,BLDG_OCC_SCH_dy_3,BLDG_OCC_SCH_dy_3,BLDG_OCC_SCH_dy_3,BLDG_OCC_SCH_dy_3,BLDG_OCC_SCH_dy_4,BLDG_OCC_SCH_dy_4,BLDG_OCC_SCH_dy_3,BLDG_OCC_SCH_dy_4,BLDG_OCC_SCH_dy_4,BLDG_OCC_SCH_dy_4
Schedule:Week:Daily,BLDG_OCC_SCH_wk_3,BLDG_OCC_SCH_dy_6,BLDG_OCC_SCH_dy_5,BLDG_OCC_SCH_dy_5,BLDG_OCC_SCH_dy_5,BLDG_OCC_SCH_dy_5,BLDG_OCC_SCH_dy_5,BLDG_OCC_SCH_dy_6,BLDG_OCC_SCH_dy_6,BLDG_OCC_SCH_dy_5,BLDG_OCC_SCH_dy_6,BLDG_OCC_SCH_dy_6,BLDG_OCC_SCH_dy_6
Schedule:Week:Daily,BLDG_OCC_SCH_AUDITORIUM_wk_1,BLDG_OCC_SCH_AUDITORIUM_dy_2,BLDG_OCC_SCH_AUDITORIUM_dy_1,BLDG_OCC_SCH_AUDITORIUM_dy_1,BLDG_OCC_SCH_AUDITORIUM_dy_1,BLDG_OCC_SCH_AUDITORIUM_dy_1,BLDG_OCC_SCH_AUDITORIUM_dy_1,BLDG_OCC_SCH_AUDITORIUM_dy_2,BLDG_OCC_SCH_AUDITORIUM_dy_2,BLDG_OCC_SCH_AUDITORIUM_dy_1,BLDG_OCC_SCH_AUDITORIUM_dy_2,BLDG_OCC_SCH_AUDITORIUM_dy_2,BLDG_OCC_SCH_AUDITORIUM_dy_2
Schedule:Week:Daily,BLDG_OCC_SCH_AUDITORIUM_wk_2,BLDG_OCC_SCH_AUDITORIUM_dy_4,BLDG_OCC_SCH_AUDITORIUM_dy_3,BLDG_OCC_SCH_AUDITORIUM_dy_3,BLDG_OCC_SCH_AUDITORIUM_dy_3,BLDG_OCC_SCH_AUDITORIUM_dy_3,BLDG_OCC_SCH_AUDITORIUM_dy_3,BLDG_OCC_SCH_AUDITORIUM_dy_4,BLDG_OCC_SCH_AUDITORIUM_dy_4,BLDG_OCC_SCH_AUDITORIUM_dy_3,BLDG_OCC_SCH_AUDITORIUM_dy_4,BLDG_OCC_SCH_AUDITORIUM_dy_4,BLDG_OCC_SCH_AUDITORIUM_dy_4
Schedule:Week:Daily,BLDG_OCC_SCH_AUDITORIUM_wk_3,BLDG_OCC_SCH_AUDITORIUM_dy_6,BLDG_OCC_SCH_AUDITORIUM_dy_5,BLDG_OCC_SCH_AUDITORIUM_dy_5,BLDG_OCC_SCH_AUDITORIUM_dy_5,BLDG_OCC_SCH_AUDITORIUM_dy_5,BLDG_OCC_SCH_AUDITORIUM_dy_5,BLDG_OCC_SCH_AUDITORIUM_dy_6,BLDG_OCC_SCH_AUDITORIUM_dy_6,BLDG_OCC_SCH_AUDITORIUM_dy_5,BLDG_OCC_SCH_AUDITORIUM_dy_6,BLDG_OCC_SCH_AUDITORIUM_dy_6,BLDG_OCC_SCH_AUDITORIUM_dy_6
Schedule:Week:Daily,BLDG_OCC_SCH_CAFETERIA_wk_1,BLDG_OCC_SCH_CAFETERIA_dy_2,BLDG_OCC_SCH_CAFETERIA_dy_1,BLDG_OCC_SCH_CAFETERIA_dy_1,BLDG_OCC_SCH_CAFETERIA_dy_1,BLDG_OCC_SCH_CAFETERIA_dy_1,BLDG_OCC_SCH_CAFETERIA_dy_1,BLDG_OCC_SCH_CAFETERIA_dy_2,BLDG_OCC_SCH_CAFETERIA_dy_2,BLDG_OCC_SCH_CAFETERIA_dy_1,BLDG_OCC_SCH_CAFETERIA_dy_2,BLDG_OCC_SCH_CAFETERIA_dy_2,BLDG_OCC_SCH_CAFETERIA_dy_2
Schedule:Week:Daily,BLDG_OCC_SCH_CAFETERIA_wk_2,BLDG_OCC_SCH_CAFETERIA_dy_4,BLDG_OCC_SCH_CAFETERIA_dy_3,BLDG_OCC_SCH_CAFETERIA_dy_3,BLDG_OCC_SCH_CAFETERIA_dy_3,BLDG_OCC_SCH_CAFETERIA_dy_3,BLDG_OCC_SCH_CAFETERIA_dy_3,BLDG_OCC_SCH_CAFETERIA_dy_4,BLDG_OCC_SCH_CAFETERIA_dy_4,BLDG_OCC_SCH_CAFETERIA_dy_3,BLDG_OCC_SCH_CAFETERIA_dy_4,BLDG_OCC_SCH_CAFETERIA_dy_4,BLDG_OCC_SCH_CAFETERIA_dy_4
Schedule:Week:Daily,BLDG_OCC_SCH_CAFETERIA_wk_3,BLDG_OCC_SCH_CAFETERIA_dy_6,BLDG_OCC_SCH_CAFETERIA_dy_5,BLDG_OCC_SCH_CAFETERIA_dy_5,BLDG_OCC_SCH_CAFETERIA_dy_5,BLDG_OCC_SCH_CAFETERIA_dy_5,BLDG_OCC_SCH_CAFETERIA_dy_5,BLDG_OCC_SCH_CAFETERIA_dy_6,BLDG_OCC_SCH_CAFETERIA_dy_6,BLDG_OCC_SCH_CAFETERIA_dy_5,BLDG_OCC_SCH_CAFETERIA_dy_6,BLDG_OCC_SCH_CAFETERIA_dy_6,BLDG_OCC_SCH_CAFETERIA_dy_6
Schedule:Week:Daily,BLDG_OCC_SCH_EXTEND_wk_1,BLDG_OCC_SCH_EXTEND_dy_2,BLDG_OCC_SCH_EXTEND_dy_1,BLDG_OCC_SCH_EXTEND_dy_1,BLDG_OCC_SCH_EXTEND_dy_1,BLDG_OCC_SCH_EXTEND_dy_1,BLDG_OCC_SCH_EXTEND_dy_1,BLDG_OCC_SCH_EXTEND_dy_2,BLDG_OCC_SCH_EXTEND_dy_2,BLDG_OCC_SCH_EXTEND_dy_1,BLDG_OCC_SCH_EXTEND_dy_2,BLDG_OCC_SCH_EXTEND_dy_2,BLDG_OCC_SCH_EXTEND_dy_2
Schedule:Week:Daily,BLDG_OCC_SCH_EXTEND_wk_2,BLDG_OCC_SCH_EXTEND_dy_4,BLDG_OCC_SCH_EXTEND_dy_3,BLDG_OCC_SCH_EXTEND_dy_3,BLDG_OCC_SCH_EXTEND_dy_3,BLDG_OCC_SCH_EXTEND_dy_3,BLDG_OCC_SCH_EXTEND_dy_3,BLDG_OCC_SCH_EXTEND_dy_4,BLDG_OCC_SCH_EXTEND_dy_4,BLDG_OCC_SCH_EXTEND_dy_3,BLDG_OCC_SCH_EXTEND_dy_4,BLDG_OCC_SCH_EXTEND_dy_4,BLDG_OCC_SCH_EXTEND_dy_4
Schedule:Week:Daily,BLDG_OCC_SCH_EXTEND_wk_3,BLDG_OCC_SCH_EXTEND_dy_6,BLDG_OCC_SCH_EXTEND_dy_5,BLDG_OCC_SCH_EXTEND_dy_5,BLDG_OCC_SCH_EXTEND_dy_5,BLDG_OCC_SCH_EXTEND_dy_5,BLDG_OCC_SCH_EXTEND_dy_5,BLDG_OCC_SCH_EXTEND_dy_6,BLDG_OCC_SCH_EXTEND_dy_6,BLDG_OCC_SCH_EXTEND_dy_5,BLDG_OCC_SCH_EXTEND_dy_6,BLDG_OCC_SCH_EXTEND_dy_6,BLDG_OCC_SCH_EXTEND_dy_6
Schedule:Week:Daily,BLDG_OCC_SCH_GYM_wk_1,BLDG_OCC_SCH_GYM_dy_2,BLDG_OCC_SCH_GYM_dy_1,BLDG_OCC_SCH_GYM_dy_1,BLDG_OCC_SCH_GYM_dy_1,BLDG_OCC_SCH_GYM_dy_1,BLDG_OCC_SCH_GYM_dy_1,BLDG_OCC_SCH_GYM_dy_2,BLDG_OCC_SCH_GYM_dy_2,BLDG_OCC_SCH_GYM_dy_1,BLDG_OCC_SCH_GYM_dy_2,BLDG_OCC_SCH_GYM_dy_2,BLDG_OCC_SCH_GYM_dy_2
Schedule:Week:Daily,BLDG_OCC_SCH_GYM_wk_2,BLDG_OCC_SCH_GYM_dy_4,BLDG_OCC_SCH_GYM_dy_3,BLDG_OCC_SCH_GYM_dy_3,BLDG_OCC_SCH_GYM_dy_3,BLDG_OCC_SCH_GYM_dy_3,BLDG_OCC_SCH_GYM_dy_3,BLDG_OCC_SCH_GYM_dy_4,BLDG_OCC_SCH_GYM_dy_4,BLDG_OCC_SCH_GYM_dy_3,BLDG_OCC_SCH_GYM_dy_4,BLDG_OCC_SCH_GYM_dy_4,BLDG_OCC_SCH_GYM_dy_4
Schedule:Week:Daily,BLDG_OCC_SCH_GYM_wk_3,BLDG_OCC_SCH_GYM_dy_6,BLDG_OCC_SCH_GYM_dy_5,BLDG_OCC_SCH_GYM_dy_5,BLDG_OCC_SCH_GYM_dy_5,BLDG_OCC_SCH_GYM_dy_5,BLDG_OCC_SCH_GYM_dy_5,BLDG_OCC_SCH_GYM_dy_6,BLDG_OCC_SCH_GYM_dy_6,BLDG_OCC_SCH_GYM_dy_5,BLDG_OCC_SCH_GYM_dy_6,BLDG_OCC_SCH_GYM_dy_6,BLDG_OCC_SCH_GYM_dy_6
Schedule:Week:Daily,BLDG_OCC_SCH_OFFICES_wk_1,BLDG_OCC_SCH_OFFICES_dy_2,BLDG_OCC_SCH_OFFICES_dy_1,BLDG_OCC_SCH_OFFICES_dy_1,BLDG_OCC_SCH_OFFICES_dy_1,BLDG_OCC_SCH_OFFICES_dy_1,BLDG_OCC_SCH_OFFICES_dy_1,BLDG_OCC_SCH_OFFICES_dy_2,BLDG_OCC_SCH_OFFICES_dy_2,BLDG_OCC_SCH_OFFICES_dy_1,BLDG_OCC_SCH_OFFICES_dy_2,BLDG_OCC_SCH_OFFICES_dy_2,BLDG_OCC_SCH_OFFICES_dy_2
Schedule:Week:Daily,BLDG_OCC_SCH_OFFICES_wk_2,BLDG_OCC_SCH_OFFICES_dy_4,BLDG_OCC_SCH_OFFICES_dy_3,BLDG_OCC_SCH_OFFICES_dy_3,BLDG_OCC_SCH_OFFICES_dy_3,BLDG_OCC_SCH_OFFICES_dy_3,BLDG_OCC_SCH_OFFICES_dy_3,BLDG_OCC_SCH_OFFICES_dy_4,BLDG_OCC_SCH_OFFICES_dy_4,BLDG_OCC_SCH_OFFICES_dy_3,BLDG_OCC_SCH_OFFICES_dy_4,BLDG_OCC_SCH_OFFICES_dy_4,BLDG_OCC_SCH_OFFICES_dy_4
Schedule:Week:Daily,BLDG_OCC_SCH_OFFICES_wk_3,BLDG_OCC_SCH_OFFICES_dy_6,BLDG_OCC_SCH_OFFICES_dy_5,BLDG_OCC_SCH_OFFICES_dy_5,BLDG_OCC_SCH_OFFICES_dy_5,BLDG_OCC_SCH_OFFICES_dy_5,BLDG_OCC_SCH_OFFICES_dy_5,BLDG_OCC_SCH_OFFICES_dy_6,BLDG_OCC_SCH_OFFICES_dy_6,BLDG_OCC_SCH_OFFICES_dy_5,BLDG_OCC_SCH_OFFICES_dy_6,BLDG_OCC_SCH_OFFICES_dy_6,BLDG_OCC_SCH_OFFICES_dy_6
Schedule:Week:Daily,KITCHEN_ELEC_EQUIP_SCH_wk_1,KITCHEN_ELEC_EQUIP_SCH_dy_2,KITCHEN_ELEC_EQUIP_SCH_dy_1,KITCHEN_ELEC_EQUIP_SCH_dy_1,KITCHEN_ELEC_EQUIP_SCH_dy_1,KITCHEN_ELEC_EQUIP_SCH_dy_1,KITCHEN_ELEC_EQUIP_SCH_dy_1,KITCHEN_ELEC_EQUIP_SCH_dy_2,KITCHEN_ELEC_EQUIP_SCH_dy_2,KITCHEN_ELEC_EQUIP_SCH_dy_1,KITCHEN_ELEC_EQUIP_SCH_dy_2,KITCHEN_ELEC_EQUIP_SCH_dy_2,KITCHEN_ELEC_EQUIP_SCH_dy_2
Schedule:Week:Daily,KITCHEN_ELEC_EQUIP_SCH_wk_2,KITCHEN_ELEC_EQUIP_SCH_dy_4,KITCHEN_ELEC_EQUIP_SCH_dy_3,KITCHEN_ELEC_EQUIP_SCH_dy_3,KITCHEN_ELEC_EQUIP_SCH_dy_3,KITCHEN_ELEC_EQUIP_SCH_dy_3,KITCHEN_ELEC_EQUIP_SCH_dy_3,KITCHEN_ELEC_EQUIP_SCH_dy_4,KITCHEN_ELEC_EQUIP_SCH_dy_4,KITCHEN_ELEC_EQUIP_SCH_dy_3,KITCHEN_ELEC_EQUIP_SCH_dy_4,KITCHEN_ELEC_EQUIP_SCH_dy_4,KITCHEN_ELEC_EQUIP_SCH_dy_4
Schedule:Week:Daily,KITCHEN_ELEC_EQUIP_SCH_wk_3,KITCHEN_ELEC_EQUIP_SCH_dy_6,KITCHEN_ELEC_EQUIP_SCH_dy_5,KITCHEN_ELEC_EQUIP_SCH_dy_5,KITCHEN_ELEC_EQUIP_SCH_dy_5,KITCHEN_ELEC_EQUIP_SCH_dy_5,KITCHEN_ELEC_EQUIP_SCH_dy_5,KITCHEN_ELEC_EQUIP_SCH_dy_6,KITCHEN_ELEC_EQUIP_SCH_dy_6,KITCHEN_ELEC_EQUIP_SCH_dy_5,KITCHEN_ELEC_EQUIP_SCH_dy_6,KITCHEN_ELEC_EQUIP_SCH_dy_6,KITCHEN_ELEC_EQUIP_SCH_dy_6
Schedule:Week:Daily,KITCHEN_GAS_EQUIP_SCH_wk_1,KITCHEN_GAS_EQUIP_SCH_dy_2,KITCHEN_GAS_EQUIP_SCH_dy_1,KITCHEN_GAS_EQUIP_SCH_dy_1,KITCHEN_GAS_EQUIP_SCH_dy_1,KITCHEN_GAS_EQUIP_SCH_dy_1,KITCHEN_GAS_EQUIP_SCH_dy_1,KITCHEN_GAS_EQUIP_SCH_dy_2,KITCHEN_GAS_EQUIP_SCH_dy_2,KITCHEN_GAS_EQUIP_SCH_dy_1,KITCHEN_GAS_EQUIP_SCH_dy_2,KITCHEN_GAS_EQUIP_SCH_dy_2,KITCHEN_GAS_EQUIP_SCH_dy_2
Schedule:Week:Daily,KITCHEN_GAS_EQUIP_SCH_wk_2,KITCHEN_GAS_EQUIP_SCH_dy_4,KITCHEN_GAS_EQUIP_SCH_dy_3,KITCHEN_GAS_EQUIP_SCH_dy_3,KITCHEN_GAS_EQUIP_SCH_dy_3,KITCHEN_GAS_EQUIP_SCH_dy_3,KITCHEN_GAS_EQUIP_SCH_dy_3,KITCHEN_GAS_EQUIP_SCH_dy_4,KITCHEN_GAS_EQUIP_SCH_dy_4,KITCHEN_GAS_EQUIP_SCH_dy_3,KITCHEN_GAS_EQUIP_SCH_dy_4,KITCHEN_GAS_EQUIP_SCH_dy_4,KITCHEN_GAS_EQUIP_SCH_dy_4
Schedule:Week:Daily,KITCHEN_GAS_EQUIP_SCH_wk_3,KITCHEN_GAS_EQUIP_SCH_dy_6,KITCHEN_GAS_EQUIP_SCH_dy_5,KITCHEN_GAS_EQUIP_SCH_dy_5,KITCHEN_GAS_EQUIP_SCH_dy_5,KITCHEN_GAS_EQUIP_SCH_dy_5,KITCHEN_GAS_EQUIP_SCH_dy_5,KITCHEN_GAS_EQUIP_SCH_dy_6,KITCHEN_GAS_EQUIP_SCH_dy_6,KITCHEN_GAS_EQUIP_SCH_dy_5,KITCHEN_GAS_EQUIP_SCH_dy_6,KITCHEN_GAS_EQUIP_SCH_dy_6,KITCHEN_GAS_EQUIP_SCH_dy_6
Schedule:Week:Daily,INFIL_SCH_wk_1,INFIL_SCH_dy_1,INFIL_SCH_dy_1,INFIL_SCH_dy_1,INFIL_SCH_dy_1,INFIL_SCH_dy_1,INFIL_SCH_dy_1,INFIL_SCH_dy_1,INFIL_SCH_dy_1,INFIL_SCH_dy_1,INFIL_SCH_dy_1,INFIL_SCH_dy_1,INFIL_SCH_dy_1
Schedule:Week:Daily,ACTIVITY_SCH_wk_1,ACTIVITY_SCH_dy_1,ACTIVITY_SCH_dy_1,ACTIVITY_SCH_dy_1,ACTIVITY_SCH_dy_1,ACTIVITY_SCH_dy_1,ACTIVITY_SCH_dy_1,ACTIVITY_SCH_dy_1,ACTIVITY_SCH_dy_1,ACTIVITY_SCH_dy_1,ACTIVITY_SCH_dy_1,ACTIVITY_SCH_dy_1,ACTIVITY_SCH_dy_1
Schedule:Week:Daily,AIR_VELO_SCH_wk_1,AIR_VELO_SCH_dy_1,AIR_VELO_SCH_dy_1,AIR_VELO_SCH_dy_1,AIR_VELO_SCH_dy_1,AIR_VELO_SCH_dy_1,AIR_VELO_SCH_dy_1,AIR_VELO_SCH_dy_1,AIR_VELO_SCH_dy_1,AIR_VELO_SCH_dy_1,AIR_VELO_SCH_dy_1,AIR_VELO_SCH_dy_1,AIR_VELO_SCH_dy_1
Schedule:Week:Daily,CLOTHING_SCH_wk_1,CLOTHING_SCH_dy_1,CLOTHING_SCH_dy_1,CLOTHING_SCH_dy_1,CLOTHING_SCH_dy_1,CLOTHING_SCH_dy_1,CLOTHING_SCH_dy_1,CLOTHING_SCH_dy_1,CLOTHING_SCH_dy_1,CLOTHING_SCH_dy_1,CLOTHING_SCH_dy_1,CLOTHING_SCH_dy_1,CLOTHING_SCH_dy_1
Schedule:Week:Daily,CLOTHING_SCH_wk_2,CLOTHING_SCH_dy_2,CLOTHING_SCH_dy_2,CLOTHING_SCH_dy_2,CLOTHING_SCH_dy_2,CLOTHING_SCH_dy_2,CLOTHING_SCH_dy_2,CLOTHING_SCH_dy_2,CLOTHING_SCH_dy_2,CLOTHING_SCH_dy_2,CLOTHING_SCH_dy_2,CLOTHING_SCH_dy_2,CLOTHING_SCH_dy_2
Schedule:Week:Daily,CLOTHING_SCH_wk_3,CLOTHING_SCH_dy_3,CLOTHING_SCH_dy_3,CLOTHING_SCH_dy_3,CLOTHING_SCH_dy_3,CLOTHING_SCH_dy_3,CLOTHING_SCH_dy_3,CLOTHING_SCH_dy_3,CLOTHING_SCH_dy_3,CLOTHING_SCH_dy_3,CLOTHING_SCH_dy_3,CLOTHING_SCH_dy_3,CLOTHING_SCH_dy_3
Schedule:Week:Daily,WORK_EFF_SCH_wk_1,WORK_EFF_SCH_dy_1,WORK_EFF_SCH_dy_1,WORK_EFF_SCH_dy_1,WORK_EFF_SCH_dy_1,WORK_EFF_SCH_dy_1,WORK_EFF_SCH_dy_1,WORK_EFF_SCH_dy_1,WORK_EFF_SCH_dy_1,WORK_EFF_SCH_dy_1,WORK_EFF_SCH_dy_1,WORK_EFF_SCH_dy_1,WORK_EFF_SCH_dy_1
Schedule:Week:Daily,CLGSETP_SCH_wk_1,CLGSETP_SCH_dy_2,CLGSETP_SCH_dy_3,CLGSETP_SCH_dy_3,CLGSETP_SCH_dy_3,CLGSETP_SCH_dy_3,CLGSETP_SCH_dy_3,CLGSETP_SCH_dy_2,CLGSETP_SCH_dy_2,CLGSETP_SCH_dy_1,CLGSETP_SCH_dy_2,CLGSETP_SCH_dy_3,CLGSETP_SCH_dy_3
Schedule:Week:Daily,CLGSETP_SCH_wk_2,CLGSETP_SCH_dy_5,CLGSETP_SCH_dy_6,CLGSETP_SCH_dy_6,CLGSETP_SCH_dy_6,CLGSETP_SCH_dy_6,CLGSETP_SCH_dy_6,CLGSETP_SCH_dy_5,CLGSETP_SCH_dy_5,CLGSETP_SCH_dy_4,CLGSETP_SCH_dy_5,CLGSETP_SCH_dy_6,CLGSETP_SCH_dy_6
Schedule:Week:Daily,CLGSETP_SCH_wk_3,CLGSETP_SCH_dy_8,CLGSETP_SCH_dy_9,CLGSETP_SCH_dy_9,CLGSETP_SCH_dy_9,CLGSETP_SCH_dy_9,CLGSETP_SCH_dy_9,CLGSETP_SCH_dy_8,CLGSETP_SCH_dy_8,CLGSETP_SCH_dy_7,CLGSETP_SCH_dy_8,CLGSETP_SCH_dy_9,CLGSETP_SCH_dy_9
Schedule:Week:Daily,CLGSETP_SCH_BATHCORRMECHKITCHEN_wk_1,CLGSETP_SCH_BATHCORRMECHKITCHEN_dy_2,CLGSETP_SCH_BATHCORRMECHKITCHEN_dy_2,CLGSETP_SCH_BATHCORRMECHKITCHEN_dy_2,CLGSETP_SCH_BATHCORRMECHKITCHEN_dy_2,CLGSETP_SCH_BATHCORRMECHKITCHEN_dy_2,CLGSETP_SCH_BATHCORRMECHKITCHEN_dy_2,CLGSETP_SCH_BATHCORRMECHKITCHEN_dy_2,CLGSETP_SCH_BATHCORRMECHKITCHEN_dy_2,CLGSETP_SCH_BATHCORRMECHKITCHEN_dy_1,CLGSETP_SCH_BATHCORRMECHKITCHEN_dy_2,CLGSETP_SCH_BATHCORRMECHKITCHEN_dy_2,CLGSETP_SCH_BATHCORRMECHKITCHEN_dy_2
Schedule:Week:Daily,HTGSETP_SCH_wk_1,HTGSETP_SCH_dy_2,HTGSETP_SCH_dy_3,HTGSETP_SCH_dy_3,HTGSETP_SCH_dy_3,HTGSETP_SCH_dy_3,HTGSETP_SCH_dy_3,HTGSETP_SCH_dy_2,HTGSETP_SCH_dy_2,HTGSETP_SCH_dy_2,HTGSETP_SCH_dy_1,HTGSETP_SCH_dy_3,HTGSETP_SCH_dy_3
Schedule:Week:Daily,HTGSETP_SCH_wk_2,HTGSETP_SCH_dy_5,HTGSETP_SCH_dy_6,HTGSETP_SCH_dy_6,HTGSETP_SCH_dy_6,HTGSETP_SCH_dy_6,HTGSETP_SCH_dy_6,HTGSETP_SCH_dy_5,HTGSETP_SCH_dy_5,HTGSETP_SCH_dy_5,HTGSETP_SCH_dy_4,HTGSETP_SCH_dy_6,HTGSETP_SCH_dy_6
Schedule:Week:Daily,HTGSETP_SCH_wk_3,HTGSETP_SCH_dy_8,HTGSETP_SCH_dy_9,HTGSETP_SCH_dy_9,HTGSETP_SCH_dy_9,HTGSETP_SCH_dy_9,HTGSETP_SCH_dy_9,HTGSETP_SCH_dy_8,HTGSETP_SCH_dy_8,HTGSETP_SCH_dy_8,HTGSETP_SCH_dy_7,HTGSETP_SCH_dy_9,HTGSETP_SCH_dy_9
Schedule:Week:Daily,HTGSETP_SCH_BATHCORRMECHKITCHEN_wk_1,HTGSETP_SCH_BATHCORRMECHKITCHEN_dy_2,HTGSETP_SCH_BATHCORRMECHKITCHEN_dy_2,HTGSETP_SCH_BATHCORRMECHKITCHEN_dy_2,HTGSETP_SCH_BATHCORRMECHKITCHEN_dy_2,HTGSETP_SCH_BATHCORRMECHKITCHEN_dy_2,HTGSETP_SCH_BATHCORRMECHKITCHEN_dy_2,HTGSETP_SCH_BATHCORRMECHKITCHEN_dy_2,HTGSETP_SCH_BATHCORRMECHKITCHEN_dy_2,HTGSETP_SCH_BATHCORRMECHKITCHEN_dy_2,HTGSETP_SCH_BATHCORRMECHKITCHEN_dy_1,HTGSETP_SCH_BATHCORRMECHKITCHEN_dy_2,HTGSETP_SCH_BATHCORRMECHKITCHEN_dy_2
Schedule:Week:Daily,HVACOPERATIONSCHD_wk_1,HVACOPERATIONSCHD_dy_2,HVACOPERATIONSCHD_dy_1,HVACOPERATIONSCHD_dy_1,HVACOPERATIONSCHD_dy_1,HVACOPERATIONSCHD_dy_1,HVACOPERATIONSCHD_dy_1,HVACOPERATIONSCHD_dy_2,HVACOPERATIONSCHD_dy_2,HVACOPERATIONSCHD_dy_1,HVACOPERATIONSCHD_dy_2,HVACOPERATIONSCHD_dy_2,HVACOPERATIONSCHD_dy_2
Schedule:Week:Daily,MINOA_SCHED_wk_1,MINOA_SCHED_dy_2,MINOA_SCHED_dy_1,MINOA_SCHED_dy_1,MINOA_SCHED_dy_1,MINOA_SCHED_dy_1,MINOA_SCHED_dy_1,MINOA_SCHED_dy_2,MINOA_SCHED_dy_2,MINOA_SCHED_dy_1,MINOA_SCHED_dy_2,MINOA_SCHED_dy_2,MINOA_SCHED_dy_2
Schedule:Week:Daily,SEASONAL-RESET-SUPPLY-AIR-TEMP-SCH_wk_1,SEASONAL-RESET-SUPPLY-AIR-TEMP-SCH_dy_1,SEASONAL-RESET-SUPPLY-AIR-TEMP-SCH_dy_1,SEASONAL-RESET-SUPPLY-AIR-TEMP-SCH_dy_1,SEASONAL-RESET-SUPPLY-AIR-TEMP-SCH_dy_1,SEASONAL-RESET-SUPPLY-AIR-TEMP-SCH_dy_1,SEASONAL-RESET-SUPPLY-AIR-TEMP-SCH_dy_1,SEASONAL-RESET-SUPPLY-AIR-TEMP-SCH_dy_1,SEASONAL-RESET-SUPPLY-AIR-TEMP-SCH_dy_1,SEASONAL-RESET-SUPPLY-AIR-TEMP-SCH_dy_1,SEASONAL-RESET-SUPPLY-AIR-TEMP-SCH_dy_1,SEASONAL-RESET-SUPPLY-AIR-TEMP-SCH_dy_1,SEASONAL-RESET-SUPPLY-AIR-TEMP-SCH_dy_1
Schedule:Week:Daily,DUAL ZONE CONTROL TYPE SCHED_wk_1,DUAL ZONE CONTROL TYPE SCHED_dy_1,DUAL ZONE CONTROL TYPE SCHED_dy_1,DUAL ZONE CONTROL TYPE SCHED_dy_1,DUAL ZONE CONTROL TYPE SCHED_dy_1,DUAL ZONE CONTROL TYPE SCHED_dy_1,DUAL ZONE CONTROL TYPE SCHED_dy_1,DUAL ZONE CONTROL TYPE SCHED_dy_1,DUAL ZONE CONTROL TYPE SCHED_dy_1,DUAL ZONE CONTROL TYPE SCHED_dy_1,DUAL ZONE CONTROL TYPE SCHED_dy_1,DUAL ZONE CONTROL TYPE SCHED_dy_1,DUAL ZONE CONTROL TYPE SCHED_dy_1
Schedule:Week:Daily,CW-LOOP-TEMP-SCHEDULE_wk_1,CW-LOOP-TEMP-SCHEDULE_dy_1,CW-LOOP-TEMP-SCHEDULE_dy_1,CW-LOOP-TEMP-SCHEDULE_dy_1,CW-LOOP-TEMP-SCHEDULE_dy_1,CW-LOOP-TEMP-SCHEDULE_dy_1,CW-LOOP-TEMP-SCHEDULE_dy_1,CW-LOOP-TEMP-SCHEDULE_dy_1,CW-LOOP-TEMP-SCHEDULE_dy_1,CW-LOOP-TEMP-SCHEDULE_dy_1,CW-LOOP-TEMP-SCHEDULE_dy_1,CW-LOOP-TEMP-SCHEDULE_dy_1,CW-LOOP-TEMP-SCHEDULE_dy_1
Schedule:Week:Daily,HW-LOOP-TEMP-SCHEDULE_wk_1,HW-LOOP-TEMP-SCHEDULE_dy_1,HW-LOOP-TEMP-SCHEDULE_dy_1,HW-LOOP-TEMP-SCHEDULE_dy_1,HW-LOOP-TEMP-SCHEDULE_dy_1,HW-LOOP-TEMP-SCHEDULE_dy_1,HW-LOOP-TEMP-SCHEDULE_dy_1,HW-LOOP-TEMP-SCHEDULE_dy_1,HW-LOOP-TEMP-SCHEDULE_dy_1,HW-LOOP-TEMP-SCHEDULE_dy_1,HW-LOOP-TEMP-SCHEDULE_dy_1,HW-LOOP-TEMP-SCHEDULE_dy_1,HW-LOOP-TEMP-SCHEDULE_dy_1
Schedule:Week:Daily,PLANTONSCHED_wk_1,PLANTONSCHED_dy_1,PLANTONSCHED_dy_1,PLANTONSCHED_dy_1,PLANTONSCHED_dy_1,PLANTONSCHED_dy_1,PLANTONSCHED_dy_1,PLANTONSCHED_dy_1,PLANTONSCHED_dy_1,PLANTONSCHED_dy_1,PLANTONSCHED_dy_1,PLANTONSCHED_dy_1,PLANTONSCHED_dy_1
Schedule:Week:Daily,KITCHEN_ZN_1_FLR_1_CASE:1_WALKINFREEZER_CASECREDITREDUXSCHED_wk_1,KITCHEN_ZN_1_FLR_1_CASE:1_WALKINFREEZER_CASECREDITREDUXSCHED_dy_1,KITCHEN_ZN_1_FLR_1_CASE:1_WALKINFREEZER_CASECREDITREDUXSCHED_dy_1,KITCHEN_ZN_1_FLR_1_CASE:1_WALKINFREEZER_CASECREDITREDUXSCHED_dy_1,KITCHEN_ZN_1_FLR_1_CASE:1_WALKINFREEZER_CASECREDITREDUXSCHED_dy_1,KITCHEN_ZN_1_FLR_1_CASE:1_WALKINFREEZER_CASECREDITREDUXSCHED_dy_1,KITCHEN_ZN_1_FLR_1_CASE:1_WALKINFREEZER_CASECREDITREDUXSCHED_dy_1,KITCHEN_ZN_1_FLR_1_CASE:1_WALKINFREEZER_CASECREDITREDUXSCHED_dy_1,KITCHEN_ZN_1_FLR_1_CASE:1_WALKINFREEZER_CASECREDITREDUXSCHED_dy_1,KITCHEN_ZN_1_FLR_1_CASE:1_WALKINFREEZER_CASECREDITREDUXSCHED_dy_1,KITCHEN_ZN_1_FLR_1_CASE:1_WALKINFREEZER_CASECREDITREDUXSCHED_dy_1,KITCHEN_ZN_1_FLR_1_CASE:1_WALKINFREEZER_CASECREDITREDUXSCHED_dy_1,KITCHEN_ZN_1_FLR_1_CASE:1_WALKINFREEZER_CASECREDITREDUXSCHED_dy_1
Schedule:Week:Daily,KITCHEN_ZN_1_FLR_1_CASE:1_WALKINFREEZER_CASEDEFROST2ADAYSCHED_wk_1,KITCHEN_ZN_1_FLR_1_CASE:1_WALKINFREEZER_CASEDEFROST2ADAYSCHED_dy_1,KITCHEN_ZN_1_FLR_1_CASE:1_WALKINFREEZER_CASEDEFROST2ADAYSCHED_dy_1,KITCHEN_ZN_1_FLR_1_CASE:1_WALKINFREEZER_CASEDEFROST2ADAYSCHED_dy_1,KITCHEN_ZN_1_FLR_1_CASE:1_WALKINFREEZER_CASEDEFROST2ADAYSCHED_dy_1,KITCHEN_ZN_1_FLR_1_CASE:1_WALKINFREEZER_CASEDEFROST2ADAYSCHED_dy_1,KITCHEN_ZN_1_FLR_1_CASE:1_WALKINFREEZER_CASEDEFROST2ADAYSCHED_dy_1,KITCHEN_ZN_1_FLR_1_CASE:1_WALKINFREEZER_CASEDEFROST2ADAYSCHED_dy_1,KITCHEN_ZN_1_FLR_1_CASE:1_WALKINFREEZER_CASEDEFROST2ADAYSCHED_dy_1,KITCHEN_ZN_1_FLR_1_CASE:1_WALKINFREEZER_CASEDEFROST2ADAYSCHED_dy_1,KITCHEN_ZN_1_FLR_1_CASE:1_WALKINFREEZER_CASEDEFROST2ADAYSCHED_dy_1,KITCHEN_ZN_1_FLR_1_CASE:1_WALKINFREEZER_CASEDEFROST2ADAYSCHED_dy_1,KITCHEN_ZN_1_FLR_1_CASE:1_WALKINFREEZER_CASEDEFROST2ADAYSCHED_dy_1
Schedule:Week:Daily,KITCHEN_ZN_1_FLR_1_CASE:1_WALKINFREEZER_CASEDRIPDOWN2ADAYSCHED_wk_1,KITCHEN_ZN_1_FLR_1_CASE:1_WALKINFREEZER_CASEDRIPDOWN2ADAYSCHED_dy_1,KITCHEN_ZN_1_FLR_1_CASE:1_WALKINFREEZER_CASEDRIPDOWN2ADAYSCHED_dy_1,KITCHEN_ZN_1_FLR_1_CASE:1_WALKINFREEZER_CASEDRIPDOWN2ADAYSCHED_dy_1,KITCHEN_ZN_1_FLR_1_CASE:1_WALKINFREEZER_CASEDRIPDOWN2ADAYSCHED_dy_1,KITCHEN_ZN_1_FLR_1_CASE:1_WALKINFREEZER_CASEDRIPDOWN2ADAYSCHED_dy_1,KITCHEN_ZN_1_FLR_1_CASE:1_WALKINFREEZER_CASEDRIPDOWN2ADAYSCHED_dy_1,KITCHEN_ZN_1_FLR_1_CASE:1_WALKINFREEZER_CASEDRIPDOWN2ADAYSCHED_dy_1,KITCHEN_ZN_1_FLR_1_CASE:1_WALKINFREEZER_CASEDRIPDOWN2ADAYSCHED_dy_1,KITCHEN_ZN_1_FLR_1_CASE:1_WALKINFREEZER_CASEDRIPDOWN2ADAYSCHED_dy_1,KITCHEN_ZN_1_FLR_1_CASE:1_WALKINFREEZER_CASEDRIPDOWN2ADAYSCHED_dy_1,KITCHEN_ZN_1_FLR_1_CASE:1_WALKINFREEZER_CASEDRIPDOWN2ADAYSCHED_dy_1,KITCHEN_ZN_1_FLR_1_CASE:1_WALKINFREEZER_CASEDRIPDOWN2ADAYSCHED_dy_1
Schedule:Week:Daily,KITCHEN_ZN_1_FLR_1_CASE:1_WALKINFREEZER_WALKINSTOCKINGSCHED_wk_1,KITCHEN_ZN_1_FLR_1_CASE:1_WALKINFREEZER_WALKINSTOCKINGSCHED_dy_2,KITCHEN_ZN_1_FLR_1_CASE:1_WALKINFREEZER_WALKINSTOCKINGSCHED_dy_2,KITCHEN_ZN_1_FLR_1_CASE:1_WALKINFREEZER_WALKINSTOCKINGSCHED_dy_1,KITCHEN_ZN_1_FLR_1_CASE:1_WALKINFREEZER_WALKINSTOCKINGSCHED_dy_2,KITCHEN_ZN_1_FLR_1_CASE:1_WALKINFREEZER_WALKINSTOCKINGSCHED_dy_2,KITCHEN_ZN_1_FLR_1_CASE:1_WALKINFREEZER_WALKINSTOCKINGSCHED_dy_1,KITCHEN_ZN_1_FLR_1_CASE:1_WALKINFREEZER_WALKINSTOCKINGSCHED_dy_2,KITCHEN_ZN_1_FLR_1_CASE:1_WALKINFREEZER_WALKINSTOCKINGSCHED_dy_2,KITCHEN_ZN_1_FLR_1_CASE:1_WALKINFREEZER_WALKINSTOCKINGSCHED_dy_2,KITCHEN_ZN_1_FLR_1_CASE:1_WALKINFREEZER_WALKINSTOCKINGSCHED_dy_2,KITCHEN_ZN_1_FLR_1_CASE:1_WALKINFREEZER_WALKINSTOCKINGSCHED_dy_2,KITCHEN_ZN_1_FLR_1_CASE:1_WALKINFREEZER_WALKINSTOCKINGSCHED_dy_2
Schedule:Week:Daily,KITCHEN_ZN_1_FLR_1_CASE:2_SELFCONTAINEDDISPLAYCASE_CASESTOCKINGSCHED_wk_1,KITCHEN_ZN_1_FLR_1_CASE:2_SELFCONTAINEDDISPLAYCASE_CASESTOCKINGSCHED_dy_1,KITCHEN_ZN_1_FLR_1_CASE:2_SELFCONTAINEDDISPLAYCASE_CASESTOCKINGSCHED_dy_1,KITCHEN_ZN_1_FLR_1_CASE:2_SELFCONTAINEDDISPLAYCASE_CASESTOCKINGSCHED_dy_1,KITCHEN_ZN_1_FLR_1_CASE:2_SELFCONTAINEDDISPLAYCASE_CASESTOCKINGSCHED_dy_1,KITCHEN_ZN_1_FLR_1_CASE:2_SELFCONTAINEDDISPLAYCASE_CASESTOCKINGSCHED_dy_1,KITCHEN_ZN_1_FLR_1_CASE:2_SELFCONTAINEDDISPLAYCASE_CASESTOCKINGSCHED_dy_1,KITCHEN_ZN_1_FLR_1_CASE:2_SELFCONTAINEDDISPLAYCASE_CASESTOCKINGSCHED_dy_1,KITCHEN_ZN_1_FLR_1_CASE:2_SELFCONTAINEDDISPLAYCASE_CASESTOCKINGSCHED_dy_1,KITCHEN_ZN_1_FLR_1_CASE:2_SELFCONTAINEDDISPLAYCASE_CASESTOCKINGSCHED_dy_1,KITCHEN_ZN_1_FLR_1_CASE:2_SELFCONTAINEDDISPLAYCASE_CASESTOCKINGSCHED_dy_1,KITCHEN_ZN_1_FLR_1_CASE:2_SELFCONTAINEDDISPLAYCASE_CASESTOCKINGSCHED_dy_1,KITCHEN_ZN_1_FLR_1_CASE:2_SELFCONTAINEDDISPLAYCASE_CASESTOCKINGSCHED_dy_1
Schedule:Week:Daily,BLDG_SWH_SCH_wk_1,BLDG_SWH_SCH_dy_3,BLDG_SWH_SCH_dy_1,BLDG_SWH_SCH_dy_1,BLDG_SWH_SCH_dy_1,BLDG_SWH_SCH_dy_1,BLDG_SWH_SCH_dy_1,BLDG_SWH_SCH_dy_2,BLDG_SWH_SCH_dy_3,BLDG_SWH_SCH_dy_1,BLDG_SWH_SCH_dy_2,BLDG_SWH_SCH_dy_3,BLDG_SWH_SCH_dy_3
Schedule:Week:Daily,BLDG_SWH_SCH_wk_2,BLDG_SWH_SCH_dy_6,BLDG_SWH_SCH_dy_4,BLDG_SWH_SCH_dy_4,BLDG_SWH_SCH_dy_4,BLDG_SWH_SCH_dy_4,BLDG_SWH_SCH_dy_4,BLDG_SWH_SCH_dy_5,BLDG_SWH_SCH_dy_6,BLDG_SWH_SCH_dy_4,BLDG_SWH_SCH_dy_5,BLDG_SWH_SCH_dy_6,BLDG_SWH_SCH_dy_6
Schedule:Week:Daily,BLDG_SWH_SCH_wk_3,BLDG_SWH_SCH_dy_9,BLDG_SWH_SCH_dy_7,BLDG_SWH_SCH_dy_7,BLDG_SWH_SCH_dy_7,BLDG_SWH_SCH_dy_7,BLDG_SWH_SCH_dy_7,BLDG_SWH_SCH_dy_8,BLDG_SWH_SCH_dy_9,BLDG_SWH_SCH_dy_7,BLDG_SWH_SCH_dy_8,BLDG_SWH_SCH_dy_9,BLDG_SWH_SCH_dy_9
Schedule:Week:Daily,SHOWERS_SWH_SCH_wk_1,SHOWERS_SWH_SCH_dy_2,SHOWERS_SWH_SCH_dy_1,SHOWERS_SWH_SCH_dy_1,SHOWERS_SWH_SCH_dy_1,SHOWERS_SWH_SCH_dy_1,SHOWERS_SWH_SCH_dy_1,SHOWERS_SWH_SCH_dy_2,SHOWERS_SWH_SCH_dy_3,SHOWERS_SWH_SCH_dy_1,SHOWERS_SWH_SCH_dy_3,SHOWERS_SWH_SCH_dy_3,SHOWERS_SWH_SCH_dy_3
Schedule:Week:Daily,SHOWERS_SWH_SCH_wk_2,SHOWERS_SWH_SCH_dy_5,SHOWERS_SWH_SCH_dy_4,SHOWERS_SWH_SCH_dy_4,SHOWERS_SWH_SCH_dy_4,SHOWERS_SWH_SCH_dy_4,SHOWERS_SWH_SCH_dy_4,SHOWERS_SWH_SCH_dy_5,SHOWERS_SWH_SCH_dy_5,SHOWERS_SWH_SCH_dy_4,SHOWERS_SWH_SCH_dy_5,SHOWERS_SWH_SCH_dy_5,SHOWERS_SWH_SCH_dy_5
Schedule:Week:Daily,SHOWERS_SWH_SCH_wk_3,SHOWERS_SWH_SCH_dy_7,SHOWERS_SWH_SCH_dy_6,SHOWERS_SWH_SCH_dy_6,SHOWERS_SWH_SCH_dy_6,SHOWERS_SWH_SCH_dy_6,SHOWERS_SWH_SCH_dy_6,SHOWERS_SWH_SCH_dy_7,SHOWERS_SWH_SCH_dy_8,SHOWERS_SWH_SCH_dy_6,SHOWERS_SWH_SCH_dy_8,SHOWERS_SWH_SCH_dy_8,SHOWERS_SWH_SCH_dy_8
Schedule:Week:Daily,LATENT FRACT SCHED_wk_1,LATENT FRACT SCHED_dy_1,LATENT FRACT SCHED_dy_1,LATENT FRACT SCHED_dy_1,LATENT FRACT SCHED_dy_1,LATENT FRACT SCHED_dy_1,LATENT FRACT SCHED_dy_1,LATENT FRACT SCHED_dy_1,LATENT FRACT SCHED_dy_1,LATENT FRACT SCHED_dy_1,LATENT FRACT SCHED_dy_1,LATENT FRACT SCHED_dy_1,LATENT FRACT SCHED_dy_1
Schedule:Week:Daily,SENSIBLE FRACT SCHED_wk_1,SENSIBLE FRACT SCHED_dy_1,SENSIBLE FRACT SCHED_dy_1,SENSIBLE FRACT SCHED_dy_1,SENSIBLE FRACT SCHED_dy_1,SENSIBLE FRACT SCHED_dy_1,SENSIBLE FRACT SCHED_dy_1,SENSIBLE FRACT SCHED_dy_1,SENSIBLE FRACT SCHED_dy_1,SENSIBLE FRACT SCHED_dy_1,SENSIBLE FRACT SCHED_dy_1,SENSIBLE FRACT SCHED_dy_1,SENSIBLE FRACT SCHED_dy_1
Schedule:Week:Daily,HOT SUPPLY TEMP SCHED_wk_1,HOT SUPPLY TEMP SCHED_dy_1,HOT SUPPLY TEMP SCHED_dy_1,HOT SUPPLY TEMP SCHED_dy_1,HOT SUPPLY TEMP SCHED_dy_1,HOT SUPPLY TEMP SCHED_dy_1,HOT SUPPLY TEMP SCHED_dy_1,HOT SUPPLY TEMP SCHED_dy_1,HOT SUPPLY TEMP SCHED_dy_1,HOT SUPPLY TEMP SCHED_dy_1,HOT SUPPLY TEMP SCHED_dy_1,HOT SUPPLY TEMP SCHED_dy_1,HOT SUPPLY TEMP SCHED_dy_1
Schedule:Week:Daily,SHW_DEFAULT TEMP SCHED_wk_1,SHW_DEFAULT TEMP SCHED_dy_1,SHW_DEFAULT TEMP SCHED_dy_1,SHW_DEFAULT TEMP SCHED_dy_1,SHW_DEFAULT TEMP SCHED_dy_1,SHW_DEFAULT TEMP SCHED_dy_1,SHW_DEFAULT TEMP SCHED_dy_1,SHW_DEFAULT TEMP SCHED_dy_1,SHW_DEFAULT TEMP SCHED_dy_1,SHW_DEFAULT TEMP SCHED_dy_1,SHW_DEFAULT TEMP SCHED_dy_1,SHW_DEFAULT TEMP SCHED_dy_1,SHW_DEFAULT TEMP SCHED_dy_1
Schedule:Week:Daily,KITCHEN HOT SUPPLY TEMP SCHED_wk_1,KITCHEN HOT SUPPLY TEMP SCHED_dy_1,KITCHEN HOT SUPPLY TEMP SCHED_dy_1,KITCHEN HOT SUPPLY TEMP SCHED_dy_1,KITCHEN HOT SUPPLY TEMP SCHED_dy_1,KITCHEN HOT SUPPLY TEMP SCHED_dy_1,KITCHEN HOT SUPPLY TEMP SCHED_dy_1,KITCHEN HOT SUPPLY TEMP SCHED_dy_1,KITCHEN HOT SUPPLY TEMP SCHED_dy_1,KITCHEN HOT SUPPLY TEMP SCHED_dy_1,KITCHEN HOT SUPPLY TEMP SCHED_dy_1,KITCHEN HOT SUPPLY TEMP SCHED_dy_1,KITCHEN HOT SUPPLY TEMP SCHED_dy_1
Schedule:Week:Daily,SHW_KITCHEN TEMP SCHED_wk_1,SHW_KITCHEN TEMP SCHED_dy_1,SHW_KITCHEN TEMP SCHED_dy_1,SHW_KITCHEN TEMP SCHED_dy_1,SHW_KITCHEN TEMP SCHED_dy_1,SHW_KITCHEN TEMP SCHED_dy_1,SHW_KITCHEN TEMP SCHED_dy_1,SHW_KITCHEN TEMP SCHED_dy_1,SHW_KITCHEN TEMP SCHED_dy_1,SHW_KITCHEN TEMP SCHED_dy_1,SHW_KITCHEN TEMP SCHED_dy_1,SHW_KITCHEN TEMP SCHED_dy_1,SHW_KITCHEN TEMP SCHED_dy_1
Schedule:Week:Daily,SWHSYS1 WATER HEATER AMBIENT TEMPERATURE SCHEDULE NAME_wk_1,SWHSYS1 WATER HEATER AMBIENT TEMPERATURE SCHEDULE NAME_dy_1,SWHSYS1 WATER HEATER AMBIENT TEMPERATURE SCHEDULE NAME_dy_1,SWHSYS1 WATER HEATER AMBIENT TEMPERATURE SCHEDULE NAME_dy_1,SWHSYS1 WATER HEATER AMBIENT TEMPERATURE SCHEDULE NAME_dy_1,SWHSYS1 WATER HEATER AMBIENT TEMPERATURE SCHEDULE NAME_dy_1,SWHSYS1 WATER HEATER AMBIENT TEMPERATURE SCHEDULE NAME_dy_1,SWHSYS1 WATER HEATER AMBIENT TEMPERATURE SCHEDULE NAME_dy_1,SWHSYS1 WATER HEATER AMBIENT TEMPERATURE SCHEDULE NAME_dy_1,SWHSYS1 WATER HEATER AMBIENT TEMPERATURE SCHEDULE NAME_dy_1,SWHSYS1 WATER HEATER AMBIENT TEMPERATURE SCHEDULE NAME_dy_1,SWHSYS1 WATER HEATER AMBIENT TEMPERATURE SCHEDULE NAME_dy_1,SWHSYS1 WATER HEATER AMBIENT TEMPERATURE SCHEDULE NAME_dy_1
Schedule:Week:Daily,SWHSYS1 WATER HEATER SETPOINT TEMPERATURE SCHEDULE NAME_wk_1,SWHSYS1 WATER HEATER SETPOINT TEMPERATURE SCHEDULE NAME_dy_1,SWHSYS1 WATER HEATER SETPOINT TEMPERATURE SCHEDULE NAME_dy_1,SWHSYS1 WATER HEATER SETPOINT TEMPERATURE SCHEDULE NAME_dy_1,SWHSYS1 WATER HEATER SETPOINT TEMPERATURE SCHEDULE NAME_dy_1,SWHSYS1 WATER HEATER SETPOINT TEMPERATURE SCHEDULE NAME_dy_1,SWHSYS1 WATER HEATER SETPOINT TEMPERATURE SCHEDULE NAME_dy_1,SWHSYS1 WATER HEATER SETPOINT TEMPERATURE SCHEDULE NAME_dy_1,SWHSYS1 WATER HEATER SETPOINT TEMPERATURE SCHEDULE NAME_dy_1,SWHSYS1 WATER HEATER SETPOINT TEMPERATURE SCHEDULE NAME_dy_1,SWHSYS1 WATER HEATER SETPOINT TEMPERATURE SCHEDULE NAME_dy_1,SWHSYS1 WATER HEATER SETPOINT TEMPERATURE SCHEDULE NAME_dy_1,SWHSYS1 WATER HEATER SETPOINT TEMPERATURE SCHEDULE NAME_dy_1
Schedule:Week:Daily,SWHSYS1-LOOP-TEMP-SCHEDULE_wk_1,SWHSYS1-LOOP-TEMP-SCHEDULE_dy_1,SWHSYS1-LOOP-TEMP-SCHEDULE_dy_1,SWHSYS1-LOOP-TEMP-SCHEDULE_dy_1,SWHSYS1-LOOP-TEMP-SCHEDULE_dy_1,SWHSYS1-LOOP-TEMP-SCHEDULE_dy_1,SWHSYS1-LOOP-TEMP-SCHEDULE_dy_1,SWHSYS1-LOOP-TEMP-SCHEDULE_dy_1,SWHSYS1-LOOP-TEMP-SCHEDULE_dy_1,SWHSYS1-LOOP-TEMP-SCHEDULE_dy_1,SWHSYS1-LOOP-TEMP-SCHEDULE_dy_1,SWHSYS1-LOOP-TEMP-SCHEDULE_dy_1,SWHSYS1-LOOP-TEMP-SCHEDULE_dy_1
Schedule,ALWAYS_ON,ON/OFF,Through Dec 31,ALWAYS_ON_wk_1
Schedule,KITCHEN_EXHAUST_SCH,FRACTION,Through Dec 31,KITCHEN_EXHAUST_SCH_wk_1
Schedule,BLDG_ELEVATORS,FRACTION,Through Dec 31,BLDG_ELEVATORS_wk_1
Schedule,BLDG_EQUIP_SCH,FRACTION,Through Jun 30,BLDG_EQUIP_SCH_wk_1,Through Sep 01,BLDG_EQUIP_SCH_wk_2,Through Dec 31,BLDG_EQUIP_SCH_wk_3
Schedule,BLDG_LIGHT_SCH,FRACTION,Through Jun 30,BLDG_LIGHT_SCH_wk_1,Through Sep 01,BLDG_LIGHT_SCH_wk_2,Through Dec 31,BLDG_LIGHT_SCH_wk_3
Schedule,BLDG_OCC_SCH,FRACTION,Through Jun 30,BLDG_OCC_SCH_wk_1,Through Sep 01,BLDG_OCC_SCH_wk_2,Through Dec 31,BLDG_OCC_SCH_wk_3
Schedule,BLDG_OCC_SCH_AUDITORIUM,FRACTION,Through Jun 30,BLDG_OCC_SCH_AUDITORIUM_wk_1,Through Sep 01,BLDG_OCC_SCH_AUDITORIUM_wk_2,Through Dec 31,BLDG_OCC_SCH_AUDITORIUM_wk_3
Schedule,BLDG_OCC_SCH_CAFETERIA,FRACTION,Through Jun 30,BLDG_OCC_SCH_CAFETERIA_wk_1,Through Sep 01,BLDG_OCC_SCH_CAFETERIA_wk_2,Through Dec 31,BLDG_OCC_SCH_CAFETERIA_wk_3
Schedule,BLDG_OCC_SCH_EXTEND,FRACTION,Through Jun 30,BLDG_OCC_SCH_EXTEND_wk_1,Through Sep 01,BLDG_OCC_SCH_EXTEND_wk_2,Through Dec 31,BLDG_OCC_SCH_EXTEND_wk_3
Schedule,BLDG_OCC_SCH_GYM,FRACTION,Through Jun 30,BLDG_OCC_SCH_GYM_wk_1,Through Sep 01,BLDG_OCC_SCH_GYM_wk_2,Through Dec 31,BLDG_OCC_SCH_GYM_wk_3
Schedule,BLDG_OCC_SCH_OFFICES,FRACTION,Through Jun 30,BLDG_OCC_SCH_OFFICES_wk_1,Through Sep 01,BLDG_OCC_SCH_OFFICES_wk_2,Through Dec 31,BLDG_OCC_SCH_OFFICES_wk_3
Schedule,KITCHEN_ELEC_EQUIP_SCH,FRACTION,Through Jun 30,KITCHEN_ELEC_EQUIP_SCH_wk_1,Through Sep 01,KITCHEN_ELEC_EQUIP_SCH_wk_2,Through Dec 31,KITCHEN_ELEC_EQUIP_SCH_wk_3
Schedule,KITCHEN_GAS_EQUIP_SCH,FRACTION,Through Jun 30,KITCHEN_GAS_EQUIP_SCH_wk_1,Through Sep 01,KITCHEN_GAS_EQUIP_SCH_wk_2,Through Dec 31,KITCHEN_GAS_EQUIP_SCH_wk_3
Schedule,INFIL_SCH,FRACTION,Through Dec 31,INFIL_SCH_wk_1
Schedule,ACTIVITY_SCH,ANY NUMBER,Through Dec 31,ACTIVITY_SCH_wk_1
Schedule,AIR_VELO_SCH,ANY NUMBER,Through Dec 31,AIR_VELO_SCH_wk_1
Schedule,CLOTHING_SCH,ANY NUMBER,Through Apr 30,CLOTHING_SCH_wk_1,Through Sep 30,CLOTHING_SCH_wk_2,Through Dec 31,CLOTHING_SCH_wk_3
Schedule,WORK_EFF_SCH,FRACTION,Through Dec 31,WORK_EFF_SCH_wk_1
Schedule,CLGSETP_SCH,TEMPERATURE,Through Jun 30,CLGSETP_SCH_wk_1,Through Sep 01,CLGSETP_SCH_wk_2,Through Dec 31,CLGSETP_SCH_wk_3
Schedule,CLGSETP_SCH_BATHCORRMECHKITCHEN,TEMPERATURE,Through Dec 31,CLGSETP_SCH_BATHCORRMECHKITCHEN_wk_1
Schedule,HTGSETP_SCH,TEMPERATURE,Through Jun 30,HTGSETP_SCH_wk_1,Through Sep 01,HTGSETP_SCH_wk_2,Through Dec 31,HTGSETP_SCH_wk_3
Schedule,HTGSETP_SCH_BATHCORRMECHKITCHEN,TEMPERATURE,Through Dec 31,HTGSETP_SCH_BATHCORRMECHKITCHEN_wk_1
Schedule,HVACOPERATIONSCHD,ON/OFF,Through Dec 31,HVACOPERATIONSCHD_wk_1
Schedule,MINOA_SCHED,ON/OFF,Through Dec 31,MINOA_SCHED_wk_1
Schedule,SEASONAL-RESET-SUPPLY-AIR-TEMP-SCH,TEMPERATURE,Through Dec 31,SEASONAL-RESET-SUPPLY-AIR-TEMP-SCH_wk_1
Schedule,DUAL ZONE CONTROL TYPE SCHED,CONTROL TYPE,Through Dec 31,DUAL ZONE CONTROL TYPE SCHED_wk_1
Schedule,CW-LOOP-TEMP-SCHEDULE,TEMPERATURE,Through Dec 31,CW-LOOP-TEMP-SCHEDULE_wk_1
Schedule,HW-LOOP-TEMP-SCHEDULE,TEMPERATURE,Through Dec 31,HW-LOOP-TEMP-SCHEDULE_wk_1
Schedule,PLANTONSCHED,ANY NUMBER,Through Dec 31,PLANTONSCHED_wk_1
Schedule,KITCHEN_ZN_1_FLR_1_CASE:1_WALKINFREEZER_CASECREDITREDUXSCHED,FRACTION,Through Dec 31,KITCHEN_ZN_1_FLR_1_CASE:1_WALKINFREEZER_CASECREDITREDUXSCHED_wk_1
Schedule,KITCHEN_ZN_1_FLR_1_CASE:1_WALKINFREEZER_CASEDEFROST2ADAYSCHED,ON/OFF,Through Dec 31,KITCHEN_ZN_1_FLR_1_CASE:1_WALKINFREEZER_CASEDEFROST2ADAYSCHED_wk_1
Schedule,KITCHEN_ZN_1_FLR_1_CASE:1_WALKINFREEZER_CASEDRIPDOWN2ADAYSCHED,ON/OFF,Through Dec 31,KITCHEN_ZN_1_FLR_1_CASE:1_WALKINFREEZER_CASEDRIPDOWN2ADAYSCHED_wk_1
Schedule,KITCHEN_ZN_1_FLR_1_CASE:1_WALKINFREEZER_WALKINSTOCKINGSCHED,ANY NUMBER,Through Dec 31,KITCHEN_ZN_1_FLR_1_CASE:1_WALKINFREEZER_WALKINSTOCKINGSCHED_wk_1
Schedule,KITCHEN_ZN_1_FLR_1_CASE:2_SELFCONTAINEDDISPLAYCASE_CASESTOCKINGSCHED,ANY NUMBER,Through Dec 31,KITCHEN_ZN_1_FLR_1_CASE:2_SELFCONTAINEDDISPLAYCASE_CASESTOCKINGSCHED_wk_1
Schedule,BLDG_SWH_SCH,FRACTION,Through Jun 15,BLDG_SWH_SCH_wk_1,Through Sep 15,BLDG_SWH_SCH_wk_2,Through Dec 31,BLDG_SWH_SCH_wk_3
Schedule,SHOWERS_SWH_SCH,FRACTION,Through Jun 30,SHOWERS_SWH_SCH_wk_1,Through Sep 01,SHOWERS_SWH_SCH_wk_2,Through Dec 31,SHOWERS_SWH_SCH_wk_3
Schedule,LATENT FRACT SCHED,FRACTION,Through Dec 31,LATENT FRACT SCHED_wk_1
Schedule,SENSIBLE FRACT SCHED,FRACTION,Through Dec 31,SENSIBLE FRACT SCHED_wk_1
Schedule,HOT SUPPLY TEMP SCHED,TEMPERATURE,Through Dec 31,HOT SUPPLY TEMP SCHED_wk_1
Schedule,SHW_DEFAULT TEMP SCHED,TEMPERATURE,Through Dec 31,SHW_DEFAULT TEMP SCHED_wk_1
Schedule,KITCHEN HOT SUPPLY TEMP SCHED,TEMPERATURE,Through Dec 31,KITCHEN HOT SUPPLY TEMP SCHED_wk_1
Schedule,SHW_KITCHEN TEMP SCHED,TEMPERATURE,Through Dec 31,SHW_KITCHEN TEMP SCHED_wk_1
Schedule,SWHSYS1 WATER HEATER AMBIENT TEMPERATURE SCHEDULE NAME,TEMPERATURE,Through Dec 31,SWHSYS1 WATER HEATER AMBIENT TEMPERATURE SCHEDULE NAME_wk_1
Schedule,SWHSYS1 WATER HEATER SETPOINT TEMPERATURE SCHEDULE NAME,TEMPERATURE,Through Dec 31,SWHSYS1 WATER HEATER SETPOINT TEMPERATURE SCHEDULE NAME_wk_1
Schedule,SWHSYS1-LOOP-TEMP-SCHEDULE,TEMPERATURE,Through Dec 31,SWHSYS1-LOOP-TEMP-SCHEDULE_wk_1
! <Building Information>, Building Name,North Axis {deg},Terrain,  Loads Convergence Tolerance Value,Temperature Convergence Tolerance Value,  Solar Distribution,Maximum Number of Warmup Days,Minimum Number of Warmup Days
 Building Information,Ref Bldg Secondary School Post1980_v1.3_5.0,0.000,City,4.00000E-002,0.20000,FullInteriorAndExterior,25,6
! <Inside Convection Algorithm>, Algorithm {Simple | TARP | CeilingDiffuser | AdaptiveConvectionAlgorithm}
Inside Convection Algorithm,TARP
! <Outside Convection Algorithm>, Algorithm {SimpleCombined | TARP | MoWitt | DOE-2 | AdaptiveConvectionAlgorithm}
Outside Convection Algorithm,DOE-2
! <Sky Radiance Distribution>, Value {Anisotropic}
Sky Radiance Distribution,Anisotropic
! <Zone Air Solution Algorithm>, Value {ThirdOrderBackwardDifference | AnalyticalSolution | EulerMethod}
 Zone Air Solution Algorithm, AnalyticalSolution
! <Zone Air Carbon Dioxide Balance Simulation>, Simulation {Yes/No}, Carbon Dioxide Concentration
 Zone Air Carbon Dioxide Balance Simulation, No,N/A
! <Zone Air Generic Contaminant Balance Simulation>, Simulation {Yes/No}, Generic Contaminant Concentration
 Zone Air Generic Contaminant Balance Simulation, No,N/A
! <Zone Air Mass Flow Balance Simulation>, Enforce Mass Balance, Adjust Zone Mixing, Adjust Zone Infiltration {AddInfiltration | AdjustInfiltration | None}, Infiltration Zones {MixingSourceZonesOnly | AllZones}
 Zone Air Mass Flow Balance Simulation, No,N/A,N/A,N/A
! <HVACSystemRootFindingAlgorithm>, Value {RegulaFalsi | Bisection | BisectionThenRegulaFalsi | RegulaFalsiThenBisection}
 HVACSystemRootFindingAlgorithm, RegulaFalsi
! <Environment:Site Atmospheric Variation>,Wind Speed Profile Exponent {},Wind Speed Profile Boundary Layer Thickness {m},Air Temperature Gradient Coefficient {K/m}
Environment:Site Atmospheric Variation,0.330,460.000,6.500000E-003
! <Surface Geometry>,Starting Corner,Vertex Input Direction,Coordinate System,Daylight Reference Point Coordinate System,Rectangular (Simple) Surface Coordinate System
 Surface Geometry,UpperLeftCorner,Counterclockwise,RelativeCoordinateSystem,RelativeCoordinateSystem,RelativeToZoneOrigin
! <Surface Heat Transfer Algorithm>, Value {CTF - ConductionTransferFunction | EMPD - MoisturePenetrationDepthConductionTransferFunction | CondFD - ConductionFiniteDifference | HAMT - CombinedHeatAndMoistureFiniteElement} - Description,Inside Surface Max Temperature Limit{C}, Surface Convection Coefficient Lower Limit {W/m2-K}, Surface Convection Coefficient Upper Limit {W/m2-K}
Surface Heat Transfer Algorithm, CTF - ConductionTransferFunction,200,0.10,1000.0
! <Shading Summary>, Number of Fixed Detached Shades, Number of Building Detached Shades, Number of Attached Shades
 Shading Summary,0,0,0
! <Zone Summary>, Number of Zones, Number of Zone Surfaces, Number of SubSurfaces
 Zone Summary,46,437,67
! <Zone Information>,Zone Name,North Axis {deg},Origin X-Coordinate {m},Origin Y-Coordinate {m},Origin Z-Coordinate {m},Centroid X-Coordinate {m},Centroid Y-Coordinate {m},Centroid Z-Coordinate {m},Type,Zone Multiplier,Zone List Multiplier,Minimum X {m},Maximum X {m},Minimum Y {m},Maximum Y {m},Minimum Z {m},Maximum Z {m},Ceiling Height {m},Volume {m3},Zone Inside Convection Algorithm {Simple-Detailed-CeilingDiffuser-TrombeWall},Zone Outside Convection Algorithm {Simple-Detailed-Tarp-MoWitt-DOE-2-BLAST}, Floor Area {m2},Exterior Gross Wall Area {m2},Exterior Net Wall Area {m2},Exterior Window Area {m2}, Number of Surfaces, Number of SubSurfaces, Number of Shading SubSurfaces,  Part of Total Building Area
 Zone Information, AUDITORIUM_ZN_1_FLR_1,0.0,79.00,75.00,0.00,98.00,88.00,4.00,1,1,1,79.00,117.00,75.00,101.00,0.00,8.00,8.00,7904.00,TARP,DOE-2,988.00,512.00,405.60,106.40,10,2,0,Yes
 Zone Information, AUX_GYM_ZN_1_FLR_1,0.0,117.00,14.00,0.00,129.00,40.00,4.00,1,1,1,117.00,141.00,14.00,66.00,0.00,8.00,8.00,9984.00,TARP,DOE-2,1248.00,608.00,395.20,212.80,10,4,0,Yes
 Zone Information, BATHROOMS_ZN_1_FLR_1,0.0,64.00,90.00,0.00,71.50,97.00,2.00,1,1,1,64.00,79.00,90.00,104.00,0.00,4.00,4.00,840.00,TARP,DOE-2,210.00,116.00,90.80,25.20,8,2,0,Yes
 Zone Information, BATHROOMS_ZN_1_FLR_2,0.0,64.00,90.00,4.00,71.50,97.00,6.00,1,1,1,64.00,79.00,90.00,104.00,4.00,8.00,4.00,840.00,TARP,DOE-2,210.00,116.00,90.80,25.20,8,2,0,Yes
 Zone Information, CAFETERIA_ZN_1_FLR_1,0.0,117.00,75.00,0.00,129.00,88.00,2.00,1,1,1,117.00,141.00,75.00,101.00,0.00,4.00,4.00,2496.00,TARP,DOE-2,624.00,200.00,130.00,70.00,6,2,0,Yes
 Zone Information, CORNER_CLASS_1_POD_1_ZN_1_FLR_1,0.0,0.00,0.00,0.00,5.50,4.50,2.00,1,1,1,0.00,11.00,0.00,9.00,0.00,4.00,4.00,396.00,TARP,DOE-2,99.00,80.00,52.00,28.00,6,2,0,Yes
 Zone Information, CORNER_CLASS_1_POD_1_ZN_1_FLR_2,0.0,0.00,0.00,4.00,5.50,4.50,6.00,1,1,1,0.00,11.00,0.00,9.00,4.00,8.00,4.00,396.00,TARP,DOE-2,99.00,80.00,52.00,28.00,6,2,0,Yes
 Zone Information, CORNER_CLASS_1_POD_2_ZN_1_FLR_1,0.0,0.00,40.00,0.00,5.50,44.50,2.00,1,1,1,0.00,11.00,40.00,49.00,0.00,4.00,4.00,396.00,TARP,DOE-2,99.00,80.00,52.00,28.00,6,2,0,Yes
 Zone Information, CORNER_CLASS_1_POD_2_ZN_1_FLR_2,0.0,0.00,40.00,4.00,5.50,44.50,6.00,1,1,1,0.00,11.00,40.00,49.00,4.00,8.00,4.00,396.00,TARP,DOE-2,99.00,80.00,52.00,28.00,6,2,0,Yes
 Zone Information, CORNER_CLASS_1_POD_3_ZN_1_FLR_1,0.0,0.00,81.00,0.00,5.50,85.50,2.00,1,1,1,0.00,11.00,81.00,90.00,0.00,4.00,4.00,396.00,TARP,DOE-2,99.00,80.00,52.00,28.00,6,2,0,Yes
 Zone Information, CORNER_CLASS_1_POD_3_ZN_1_FLR_2,0.0,0.00,81.00,4.00,5.50,85.50,6.00,1,1,1,0.00,11.00,81.00,90.00,4.00,8.00,4.00,396.00,TARP,DOE-2,99.00,80.00,52.00,28.00,6,2,0,Yes
 Zone Information, CORNER_CLASS_2_POD_1_ZN_1_FLR_1,0.0,0.00,14.00,0.00,5.50,18.50,2.00,1,1,1,0.00,11.00,14.00,23.00,0.00,4.00,4.00,396.00,TARP,DOE-2,99.00,80.00,52.00,28.00,6,2,0,Yes
 Zone Information, CORNER_CLASS_2_POD_1_ZN_1_FLR_2,0.0,0.00,14.00,4.00,5.50,18.50,6.00,1,1,1,0.00,11.00,14.00,23.00,4.00,8.00,4.00,396.00,TARP,DOE-2,99.00,80.00,52.00,28.00,6,2,0,Yes
 Zone Information, CORNER_CLASS_2_POD_2_ZN_1_FLR_1,0.0,0.00,54.00,0.00,5.50,58.50,2.00,1,1,1,0.00,11.00,54.00,63.00,0.00,4.00,4.00,396.00,TARP,DOE-2,99.00,80.00,52.00,28.00,6,2,0,Yes
 Zone Information, CORNER_CLASS_2_POD_2_ZN_1_FLR_2,0.0,0.00,54.00,4.00,5.50,58.50,6.00,1,1,1,0.00,11.00,54.00,63.00,4.00,8.00,4.00,396.00,TARP,DOE-2,99.00,80.00,52.00,28.00,6,2,0,Yes
 Zone Information, CORNER_CLASS_2_POD_3_ZN_1_FLR_1,0.0,0.00,95.00,0.00,5.50,99.50,2.00,1,1,1,0.00,11.00,95.00,104.00,0.00,4.00,4.00,396.00,TARP,DOE-2,99.00,80.00,52.00,28.00,6,2,0,Yes
 Zone Information, CORNER_CLASS_2_POD_3_ZN_1_FLR_2,0.0,0.00,95.00,4.00,5.50,99.50,6.00,1,1,1,0.00,11.00,95.00,104.00,4.00,8.00,4.00,396.00,TARP,DOE-2,99.00,80.00,52.00,28.00,6,2,0,Yes
 Zone Information, CORRIDOR_POD_1_ZN_1_FLR_1,0.0,0.00,9.00,0.00,32.00,11.50,2.00,1,1,1,0.00,64.00,9.00,14.00,0.00,4.00,4.00,1280.00,TARP,DOE-2,320.00,20.00,13.00,7.00,8,1,0,Yes
 Zone Information, CORRIDOR_POD_1_ZN_1_FLR_2,0.0,0.00,9.00,4.00,32.00,11.50,6.00,1,1,1,0.00,64.00,9.00,14.00,4.00,8.00,4.00,1280.00,TARP,DOE-2,320.00,20.00,13.00,7.00,8,1,0,Yes
 Zone Information, CORRIDOR_POD_2_ZN_1_FLR_1,0.0,0.00,49.00,0.00,32.00,51.50,2.00,1,1,1,0.00,64.00,49.00,54.00,0.00,4.00,4.00,1280.00,TARP,DOE-2,320.00,20.00,13.00,7.00,8,1,0,Yes
 Zone Information, CORRIDOR_POD_2_ZN_1_FLR_2,0.0,0.00,49.00,4.00,32.00,51.50,6.00,1,1,1,0.00,64.00,49.00,54.00,4.00,8.00,4.00,1280.00,TARP,DOE-2,320.00,20.00,13.00,7.00,8,1,0,Yes
 Zone Information, CORRIDOR_POD_3_ZN_1_FLR_1,0.0,0.00,90.00,0.00,32.00,92.50,2.00,1,1,1,0.00,64.00,90.00,95.00,0.00,4.00,4.00,1280.00,TARP,DOE-2,320.00,20.00,13.00,7.00,8,1,0,Yes
 Zone Information, CORRIDOR_POD_3_ZN_1_FLR_2,0.0,0.00,90.00,4.00,32.00,92.50,6.00,1,1,1,0.00,64.00,90.00,95.00,4.00,8.00,4.00,1280.00,TARP,DOE-2,320.00,20.00,13.00,7.00,8,1,0,Yes
 Zone Information, GYM_ZN_1_FLR_1,0.0,79.00,14.00,0.00,98.00,40.00,4.00,1,1,1,79.00,117.00,14.00,66.00,0.00,8.00,8.00,15808.00,TARP,DOE-2,1976.00,0.00,0.00,0.00,10,0,0,Yes
 Zone Information, KITCHEN_ZN_1_FLR_1,0.0,117.00,66.00,0.00,129.00,70.50,2.00,1,1,1,117.00,141.00,66.00,75.00,0.00,4.00,4.00,864.00,TARP,DOE-2,216.00,36.00,23.40,12.60,6,1,0,Yes
 Zone Information, LIBRARY_MEDIA_CENTER_ZN_1_FLR_2,0.0,117.00,66.00,4.00,129.00,83.50,6.00,1,1,1,117.00,141.00,66.00,101.00,4.00,8.00,4.00,3360.00,TARP,DOE-2,840.00,236.00,152.99,83.01,8,2,0,Yes
 Zone Information, LOBBY_ZN_1_FLR_1,0.0,64.00,0.00,0.00,71.50,7.00,2.00,1,1,1,64.00,79.00,0.00,14.00,0.00,4.00,4.00,840.00,TARP,DOE-2,210.00,60.00,39.00,21.00,7,1,0,Yes
 Zone Information, LOBBY_ZN_1_FLR_2,0.0,64.00,0.00,4.00,71.50,7.00,6.00,1,1,1,64.00,79.00,0.00,14.00,4.00,8.00,4.00,840.00,TARP,DOE-2,210.00,60.00,39.00,21.00,7,1,0,Yes
 Zone Information, MAIN_CORRIDOR_ZN_1_FLR_1,0.0,64.00,14.00,0.00,71.50,52.00,2.00,1,1,1,64.00,79.00,14.00,90.00,0.00,4.00,4.00,4560.00,TARP,DOE-2,1140.00,200.00,151.00,49.00,14,2,0,Yes
 Zone Information, MAIN_CORRIDOR_ZN_1_FLR_2,0.0,64.00,14.00,4.00,71.50,52.00,6.00,1,1,1,64.00,79.00,14.00,90.00,4.00,8.00,4.00,4560.00,TARP,DOE-2,1140.00,200.00,151.00,49.00,14,2,0,Yes
 Zone Information, MECH_ZN_1_FLR_1,0.0,79.00,66.00,0.00,98.00,70.50,2.00,1,1,1,79.00,117.00,66.00,75.00,0.00,4.00,4.00,1368.00,TARP,DOE-2,342.00,0.00,0.00,0.00,6,0,0,Yes
 Zone Information, MECH_ZN_1_FLR_2,0.0,79.00,66.00,4.00,98.00,70.50,6.00,1,1,1,79.00,117.00,66.00,75.00,4.00,8.00,4.00,1368.00,TARP,DOE-2,342.00,0.00,0.00,0.00,6,0,0,Yes
 Zone Information, MULT_CLASS_1_POD_1_ZN_1_FLR_1,0.0,11.00,0.00,0.00,37.50,4.50,2.00,1,1,1,11.00,64.00,0.00,9.00,0.00,4.00,4.00,1908.00,TARP,DOE-2,477.00,212.00,137.80,74.20,6,1,0,Yes
 Zone Information, MULT_CLASS_1_POD_1_ZN_1_FLR_2,0.0,11.00,0.00,4.00,37.50,4.50,6.00,1,1,1,11.00,64.00,0.00,9.00,4.00,8.00,4.00,1908.00,TARP,DOE-2,477.00,212.00,137.80,74.20,6,1,0,Yes
 Zone Information, MULT_CLASS_1_POD_2_ZN_1_FLR_1,0.0,11.00,40.00,0.00,37.50,44.50,2.00,1,1,1,11.00,64.00,40.00,49.00,0.00,4.00,4.00,1908.00,TARP,DOE-2,477.00,212.00,137.80,74.20,6,1,0,Yes
 Zone Information, MULT_CLASS_1_POD_2_ZN_1_FLR_2,0.0,11.00,40.00,4.00,37.50,44.50,6.00,1,1,1,11.00,64.00,40.00,49.00,4.00,8.00,4.00,1908.00,TARP,DOE-2,477.00,212.00,137.80,74.20,6,1,0,Yes
 Zone Information, MULT_CLASS_1_POD_3_ZN_1_FLR_1,0.0,11.00,81.00,0.00,37.50,85.50,2.00,1,1,1,11.00,64.00,81.00,90.00,0.00,4.00,4.00,1908.00,TARP,DOE-2,477.00,212.00,137.80,74.20,6,1,0,Yes
 Zone Information, MULT_CLASS_1_POD_3_ZN_1_FLR_2,0.0,11.00,81.00,4.00,37.50,85.50,6.00,1,1,1,11.00,64.00,81.00,90.00,4.00,8.00,4.00,1908.00,TARP,DOE-2,477.00,212.00,137.80,74.20,6,1,0,Yes
 Zone Information, MULT_CLASS_2_POD_1_ZN_1_FLR_1,0.0,11.00,14.00,0.00,37.50,18.50,2.00,1,1,1,11.00,64.00,14.00,23.00,0.00,4.00,4.00,1908.00,TARP,DOE-2,477.00,212.00,137.80,74.20,6,1,0,Yes
 Zone Information, MULT_CLASS_2_POD_1_ZN_1_FLR_2,0.0,11.00,14.00,4.00,37.50,18.50,6.00,1,1,1,11.00,64.00,14.00,23.00,4.00,8.00,4.00,1908.00,TARP,DOE-2,477.00,212.00,137.80,74.20,6,1,0,Yes
 Zone Information, MULT_CLASS_2_POD_2_ZN_1_FLR_1,0.0,11.00,54.00,0.00,37.50,58.50,2.00,1,1,1,11.00,64.00,54.00,63.00,0.00,4.00,4.00,1908.00,TARP,DOE-2,477.00,212.00,137.80,74.20,6,1,0,Yes
 Zone Information, MULT_CLASS_2_POD_2_ZN_1_FLR_2,0.0,11.00,54.00,4.00,37.50,58.50,6.00,1,1,1,11.00,64.00,54.00,63.00,4.00,8.00,4.00,1908.00,TARP,DOE-2,477.00,212.00,137.80,74.20,6,1,0,Yes
 Zone Information, MULT_CLASS_2_POD_3_ZN_1_FLR_1,0.0,11.00,95.00,0.00,37.50,99.50,2.00,1,1,1,11.00,64.00,95.00,104.00,0.00,4.00,4.00,1908.00,TARP,DOE-2,477.00,212.00,137.80,74.20,6,1,0,Yes
 Zone Information, MULT_CLASS_2_POD_3_ZN_1_FLR_2,0.0,11.00,95.00,4.00,37.50,99.50,6.00,1,1,1,11.00,64.00,95.00,104.00,4.00,8.00,4.00,1908.00,TARP,DOE-2,477.00,212.00,137.80,74.20,6,1,0,Yes
 Zone Information, OFFICES_ZN_1_FLR_1,0.0,79.00,0.00,0.00,98.00,7.00,2.00,1,1,1,79.00,117.00,0.00,14.00,0.00,4.00,4.00,2128.00,TARP,DOE-2,532.00,208.00,135.20,72.80,6,2,0,Yes
 Zone Information, OFFICES_ZN_1_FLR_2,0.0,79.00,0.00,4.00,98.00,7.00,6.00,1,1,1,79.00,117.00,0.00,14.00,4.00,8.00,4.00,2128.00,TARP,DOE-2,532.00,208.00,135.20,72.80,6,2,0,Yes
! <Zone Internal Gains Nominal>,Zone Name, Floor Area {m2},# Occupants,Area per Occupant {m2/person},Occupant per Area {person/m2},Interior Lighting {W/m2},Electric Load {W/m2},Gas Load {W/m2},Other Load {W/m2},Hot Water Eq {W/m2},Steam Equipment {W/m2},Sum Loads per Area {W/m2},Outdoor Controlled Baseboard Heat
 Zone Internal Gains Nominal, AUDITORIUM_ZN_1_FLR_1,988.00,988.0,1.000,1.000,12.080,5.000,0.000,0.000,0.000,0.000,17.080,No
 Zone Internal Gains Nominal, AUX_GYM_ZN_1_FLR_1,1248.00,374.8,3.330,0.300,11.810,5.000,0.000,0.000,0.000,0.000,16.810,No
 Zone Internal Gains Nominal, BATHROOMS_ZN_1_FLR_1,210.00,21.0,10.000,0.100,9.600,4.000,0.000,0.000,0.000,0.000,13.600,No
 Zone Internal Gains Nominal, BATHROOMS_ZN_1_FLR_2,210.00,21.0,10.000,0.100,9.600,4.000,0.000,0.000,0.000,0.000,13.600,No
 Zone Internal Gains Nominal, CAFETERIA_ZN_1_FLR_1,624.00,448.9,1.390,0.719,14.380,19.260,0.000,0.000,0.000,0.000,33.640,No
 Zone Internal Gains Nominal, CORNER_CLASS_1_POD_1_ZN_1_FLR_1,99.00,24.8,4.000,0.250,21.520,10.000,0.000,0.000,0.000,0.000,31.520,No
 Zone Internal Gains Nominal, CORNER_CLASS_1_POD_1_ZN_1_FLR_2,99.00,24.8,4.000,0.250,21.520,10.000,0.000,0.000,0.000,0.000,31.520,No
 Zone Internal Gains Nominal, CORNER_CLASS_1_POD_2_ZN_1_FLR_1,99.00,24.8,4.000,0.250,21.520,10.000,0.000,0.000,0.000,0.000,31.520,No
 Zone Internal Gains Nominal, CORNER_CLASS_1_POD_2_ZN_1_FLR_2,99.00,24.8,4.000,0.250,21.520,10.000,0.000,0.000,0.000,0.000,31.520,No
 Zone Internal Gains Nominal, CORNER_CLASS_1_POD_3_ZN_1_FLR_1,99.00,24.8,4.000,0.250,21.520,10.000,0.000,0.000,0.000,0.000,31.520,No
 Zone Internal Gains Nominal, CORNER_CLASS_1_POD_3_ZN_1_FLR_2,99.00,24.8,4.000,0.250,21.520,10.000,0.000,0.000,0.000,0.000,31.520,No
 Zone Internal Gains Nominal, CORNER_CLASS_2_POD_1_ZN_1_FLR_1,99.00,24.8,4.000,0.250,21.520,10.000,0.000,0.000,0.000,0.000,31.520,No
 Zone Internal Gains Nominal, CORNER_CLASS_2_POD_1_ZN_1_FLR_2,99.00,24.8,4.000,0.250,21.520,10.000,0.000,0.000,0.000,0.000,31.520,No
 Zone Internal Gains Nominal, CORNER_CLASS_2_POD_2_ZN_1_FLR_1,99.00,24.8,4.000,0.250,21.520,10.000,0.000,0.000,0.000,0.000,31.520,No
 Zone Internal Gains Nominal, CORNER_CLASS_2_POD_2_ZN_1_FLR_2,99.00,24.8,4.000,0.250,21.520,10.000,0.000,0.000,0.000,0.000,31.520,No
 Zone Internal Gains Nominal, CORNER_CLASS_2_POD_3_ZN_1_FLR_1,99.00,24.8,4.000,0.250,21.520,10.000,0.000,0.000,0.000,0.000,31.520,No
 Zone Internal Gains Nominal, CORNER_CLASS_2_POD_3_ZN_1_FLR_2,99.00,24.8,4.000,0.250,21.520,10.000,0.000,0.000,0.000,0.000,31.520,No
 Zone Internal Gains Nominal, CORRIDOR_POD_1_ZN_1_FLR_1,320.00,32.0,10.000,0.100,14.380,4.000,0.000,0.000,0.000,0.000,18.380,No
 Zone Internal Gains Nominal, CORRIDOR_POD_1_ZN_1_FLR_2,320.00,32.0,10.000,0.100,9.250,4.000,0.000,0.000,0.000,0.000,13.250,No
 Zone Internal Gains Nominal, CORRIDOR_POD_2_ZN_1_FLR_1,320.00,32.0,10.000,0.100,9.250,4.000,0.000,0.000,0.000,0.000,13.250,No
 Zone Internal Gains Nominal, CORRIDOR_POD_2_ZN_1_FLR_2,320.00,32.0,10.000,0.100,9.250,4.000,0.000,0.000,0.000,0.000,13.250,No
 Zone Internal Gains Nominal, CORRIDOR_POD_3_ZN_1_FLR_1,320.00,32.0,10.000,0.100,9.250,4.000,0.000,0.000,0.000,0.000,13.250,No
 Zone Internal Gains Nominal, CORRIDOR_POD_3_ZN_1_FLR_2,320.00,32.0,10.000,0.100,9.250,4.000,0.000,0.000,0.000,0.000,13.250,No
[...]
 Component Sizing Information, Coil:Cooling:Water, VAV_OTHER_COOLC, Design Size Design Coil Load [W], 427595.90390
 Component Sizing Information, Coil:Cooling:Water, VAV_OTHER_COOLC, Design Size Design Water Flow Rate [m3/s], 1.52727E-002
 Component Sizing Information, Coil:Cooling:Water, VAV_OTHER_COOLC, Design Size Design Air Flow Rate [m3/s], 13.58477
! <Water Cooling Coil Capacity Information>,Component Type,Name,Nominal Total Capacity {W},Nominal Sensible Capacity {W},Nominal Latent Capacity {W},Nominal Sensible Heat Ratio, Nominal Coil UA Value {W/C}, Nominal Coil Surface Area {m2}
Water Cooling Coil Capacity Information,Coil:Cooling:Water,VAV_OTHER_COOLC,414625.73,268595.86,146029.87,0.65,55920.01,567.17
 Component Sizing Information, Coil:Heating:Water, VAV_OTHER_HEATC, Design Size Rated Capacity [W], 179618.89984
 Component Sizing Information, Coil:Heating:Water, VAV_OTHER_HEATC, Design Size Maximum Water Flow Rate [m3/s], 3.93271E-003
 Component Sizing Information, Coil:Heating:Water, VAV_OTHER_HEATC, Design Size U-Factor Times Area Value [W/K], 2359.78023
Water Heating Coil Capacity Information,Coil:Heating:Water,VAV_OTHER_HEATC,114975.23
 Component Sizing Information, Fan:VariableVolume, VAV_OTHER_FAN, Design Size Maximum Flow Rate [m3/s], 13.58477
 Component Sizing Information, Controller:WaterCoil, VAV_OTHER_COOLC_CONTROLLER, Maximum Actuated Flow [m3/s], 1.52727E-002
 Component Sizing Information, Controller:WaterCoil, VAV_OTHER_COOLC_CONTROLLER, Controller Convergence Tolerance, 3.11791E-005
 Component Sizing Information, Controller:WaterCoil, VAV_OTHER_HEATC_CONTROLLER, Maximum Actuated Flow [m3/s], 3.93271E-003
 Component Sizing Information, Controller:OutdoorAir, VAV_POD_1_OA_CONTROLLER, Maximum Outdoor Air Flow Rate [m3/s], 8.47764
 Component Sizing Information, Controller:OutdoorAir, VAV_POD_1_OA_CONTROLLER, Minimum Outdoor Air Flow Rate [m3/s], 4.92800
 Component Sizing Information, Coil:Cooling:Water, VAV_POD_1_COOLC, Design Size Design Inlet Air Temperature [C], 27.55184
 Component Sizing Information, Coil:Cooling:Water, VAV_POD_1_COOLC, Design Size Design Inlet Water Temperature [C], 6.67000
 Component Sizing Information, Coil:Cooling:Water, VAV_POD_1_COOLC, Design Size Design Outlet Air Temperature [C], 11.40484
 Component Sizing Information, Coil:Cooling:Water, VAV_POD_1_COOLC, Design Size Design Inlet Air Humidity Ratio, 1.50200E-002
 Component Sizing Information, Coil:Cooling:Water, VAV_POD_1_COOLC, Design Size Design Outlet Air Humidity Ratio, 8.50000E-003
 Component Sizing Information, Coil:Cooling:Water, VAV_POD_1_COOLC, Design Size Design Coil Load [W], 330167.43865
 Component Sizing Information, Coil:Cooling:Water, VAV_POD_1_COOLC, Design Size Design Water Flow Rate [m3/s], 1.17928E-002
 Component Sizing Information, Coil:Cooling:Water, VAV_POD_1_COOLC, Design Size Design Air Flow Rate [m3/s], 8.47764
Water Cooling Coil Capacity Information,Coil:Cooling:Water,VAV_POD_1_COOLC,275031.44,174957.58,100073.87,0.64,37474.65,380.09
 Component Sizing Information, Coil:Heating:Water, VAV_POD_1_HEATC, Design Size Rated Capacity [W], 112092.01811
 Component Sizing Information, Coil:Heating:Water, VAV_POD_1_HEATC, Design Size Maximum Water Flow Rate [m3/s], 2.45423E-003
 Component Sizing Information, Coil:Heating:Water, VAV_POD_1_HEATC, Design Size U-Factor Times Area Value [W/K], 1472.63193
Water Heating Coil Capacity Information,Coil:Heating:Water,VAV_POD_1_HEATC,71750.83
 Component Sizing Information, Fan:VariableVolume, VAV_POD_1_FAN, Design Size Maximum Flow Rate [m3/s], 8.47764
 Component Sizing Information, Controller:WaterCoil, VAV_POD_1_COOLC_CONTROLLER, Maximum Actuated Flow [m3/s], 1.17928E-002
 Component Sizing Information, Controller:WaterCoil, VAV_POD_1_COOLC_CONTROLLER, Controller Convergence Tolerance, 4.03797E-005
 Component Sizing Information, Controller:WaterCoil, VAV_POD_1_HEATC_CONTROLLER, Maximum Actuated Flow [m3/s], 2.45423E-003
 Component Sizing Information, Controller:OutdoorAir, VAV_POD_2_OA_CONTROLLER, Maximum Outdoor Air Flow Rate [m3/s], 8.48763
 Component Sizing Information, Controller:OutdoorAir, VAV_POD_2_OA_CONTROLLER, Minimum Outdoor Air Flow Rate [m3/s], 4.92800
 Component Sizing Information, Coil:Cooling:Water, VAV_POD_2_COOLC, Design Size Design Inlet Air Temperature [C], 27.55383
 Component Sizing Information, Coil:Cooling:Water, VAV_POD_2_COOLC, Design Size Design Inlet Water Temperature [C], 6.67000
 Component Sizing Information, Coil:Cooling:Water, VAV_POD_2_COOLC, Design Size Design Outlet Air Temperature [C], 11.40483
 Component Sizing Information, Coil:Cooling:Water, VAV_POD_2_COOLC, Design Size Design Inlet Air Humidity Ratio, 1.50149E-002
 Component Sizing Information, Coil:Cooling:Water, VAV_POD_2_COOLC, Design Size Design Outlet Air Humidity Ratio, 8.50000E-003
 Component Sizing Information, Coil:Cooling:Water, VAV_POD_2_COOLC, Design Size Design Coil Load [W], 330448.21136
 Component Sizing Information, Coil:Cooling:Water, VAV_POD_2_COOLC, Design Size Design Water Flow Rate [m3/s], 1.18028E-002
 Component Sizing Information, Coil:Cooling:Water, VAV_POD_2_COOLC, Design Size Design Air Flow Rate [m3/s], 8.48763
Water Cooling Coil Capacity Information,Coil:Cooling:Water,VAV_POD_2_COOLC,275330.37,175152.26,100178.11,0.64,37513.62,380.48
 Component Sizing Information, Coil:Heating:Water, VAV_POD_2_HEATC, Design Size Rated Capacity [W], 112224.12927
 Component Sizing Information, Coil:Heating:Water, VAV_POD_2_HEATC, Design Size Maximum Water Flow Rate [m3/s], 2.45712E-003
 Component Sizing Information, Coil:Heating:Water, VAV_POD_2_HEATC, Design Size U-Factor Times Area Value [W/K], 1474.36757
Water Heating Coil Capacity Information,Coil:Heating:Water,VAV_POD_2_HEATC,71835.40
 Component Sizing Information, Fan:VariableVolume, VAV_POD_2_FAN, Design Size Maximum Flow Rate [m3/s], 8.48763
 Component Sizing Information, Controller:WaterCoil, VAV_POD_2_COOLC_CONTROLLER, Maximum Actuated Flow [m3/s], 1.18028E-002
 Component Sizing Information, Controller:WaterCoil, VAV_POD_2_COOLC_CONTROLLER, Controller Convergence Tolerance, 4.03454E-005
 Component Sizing Information, Controller:WaterCoil, VAV_POD_2_HEATC_CONTROLLER, Maximum Actuated Flow [m3/s], 2.45712E-003
 Component Sizing Information, Controller:OutdoorAir, VAV_POD_3_OA_CONTROLLER, Maximum Outdoor Air Flow Rate [m3/s], 9.15289
 Component Sizing Information, Controller:OutdoorAir, VAV_POD_3_OA_CONTROLLER, Minimum Outdoor Air Flow Rate [m3/s], 4.92800
 Component Sizing Information, Coil:Cooling:Water, VAV_POD_3_COOLC, Design Size Design Inlet Air Temperature [C], 27.28885
 Component Sizing Information, Coil:Cooling:Water, VAV_POD_3_COOLC, Design Size Design Inlet Water Temperature [C], 6.67000
 Component Sizing Information, Coil:Cooling:Water, VAV_POD_3_COOLC, Design Size Design Outlet Air Temperature [C], 11.40402
 Component Sizing Information, Coil:Cooling:Water, VAV_POD_3_COOLC, Design Size Design Inlet Air Humidity Ratio, 1.46923E-002
 Component Sizing Information, Coil:Cooling:Water, VAV_POD_3_COOLC, Design Size Design Outlet Air Humidity Ratio, 8.50000E-003
 Component Sizing Information, Coil:Cooling:Water, VAV_POD_3_COOLC, Design Size Design Coil Load [W], 344553.03708
 Component Sizing Information, Coil:Cooling:Water, VAV_POD_3_COOLC, Design Size Design Water Flow Rate [m3/s], 1.23066E-002
 Component Sizing Information, Coil:Cooling:Water, VAV_POD_3_COOLC, Design Size Design Air Flow Rate [m3/s], 9.15289
Water Cooling Coil Capacity Information,Coil:Cooling:Water,VAV_POD_3_COOLC,294548.54,187812.70,106735.85,0.64,40134.57,407.07
 Component Sizing Information, Coil:Heating:Water, VAV_POD_3_HEATC, Design Size Rated Capacity [W], 121020.21660
 Component Sizing Information, Coil:Heating:Water, VAV_POD_3_HEATC, Design Size Maximum Water Flow Rate [m3/s], 2.64971E-003
 Component Sizing Information, Coil:Heating:Water, VAV_POD_3_HEATC, Design Size U-Factor Times Area Value [W/K], 1589.92798
Water Heating Coil Capacity Information,Coil:Heating:Water,VAV_POD_3_HEATC,77465.83
 Component Sizing Information, Fan:VariableVolume, VAV_POD_3_FAN, Design Size Maximum Flow Rate [m3/s], 9.15289
 Component Sizing Information, Controller:WaterCoil, VAV_POD_3_COOLC_CONTROLLER, Maximum Actuated Flow [m3/s], 1.23066E-002
 Component Sizing Information, Controller:WaterCoil, VAV_POD_3_COOLC_CONTROLLER, Controller Convergence Tolerance, 3.86938E-005
 Component Sizing Information, Controller:WaterCoil, VAV_POD_3_HEATC_CONTROLLER, Maximum Actuated Flow [m3/s], 2.64971E-003
Water Heater Information,WaterHeater:Mixed,SWHSYS1 WATER HEATER,3.0000,845000.0,0.225,0.6632
 Component Sizing Information, PlantLoop, COOLSYS1, Maximum Loop Flow Rate [m3/s], 5.11750E-002
 Component Sizing Information, PlantLoop, COOLSYS1, Plant Loop Volume [m3], 6.14100
 Component Sizing Information, Pump:VariableSpeed, COOLSYS1 PUMP, Design Flow Rate [m3/s], 5.11750E-002
 Component Sizing Information, Pump:VariableSpeed, COOLSYS1 PUMP, Design Power Consumption [W], 13074.56431
 Component Sizing Information, Chiller:Electric:EIR, COOLSYS1 CHILLER, Design Size Reference Chilled Water Flow Rate [m3/s], 5.11750E-002
 Component Sizing Information, Chiller:Electric:EIR, COOLSYS1 CHILLER, Design Size Reference Capacity [W], 1432764.59100
 Component Sizing Information, Chiller:Electric:EIR, COOLSYS1 CHILLER, Design Size Reference Condenser Fluid Flow Rate  [m3/s], 163.33516
! <Chiller Standard Rating Information>, Component Type, Component Name, IPLV in SI Units {W/W}, IPLV in IP Units {Btu/W-h}
 Chiller Standard Rating Information, Chiller:Electric:EIR, COOLSYS1 CHILLER, 3.23, 11.03
 Component Sizing Information, PlantLoop, HEATSYS1, Maximum Loop Flow Rate [m3/s], 3.83518E-002
 Component Sizing Information, PlantLoop, HEATSYS1, Plant Loop Volume [m3], 4.60222
 Component Sizing Information, Pump:VariableSpeed, HEATSYS1 PUMP, Design Flow Rate [m3/s], 3.83518E-002
 Component Sizing Information, Pump:VariableSpeed, HEATSYS1 PUMP, Design Power Consumption [W], 9798.39592
 Component Sizing Information, Boiler:HotWater, HEATSYS1 BOILER, Design Size Nominal Capacity [W], 1751645.36039
 Component Sizing Information, Boiler:HotWater, HEATSYS1 BOILER, Design Size Design Water Flow Rate [m3/s], 3.83518E-002
 Component Sizing Information, PlantLoop, SWHSYS1, Maximum Loop Flow Rate [m3/s], 4.48820E-004
 Component Sizing Information, PlantLoop, SWHSYS1, Plant Loop Volume [m3], 5.38584E-002
 Component Sizing Information, Pump:VariableSpeed, SWHSYS1 PUMP, Design Flow Rate [m3/s], 4.48820E-004
 Component Sizing Information, Pump:VariableSpeed, SWHSYS1 PUMP, Design Power Consumption [W], 114.66776
 Component Sizing Information, WaterHeater:Mixed, SWHSYS1 WATER HEATER, Use Side Design Flow Rate [m3/s], 4.48820E-004
! <Environment>,Environment Name,Environment Type, Start Date, End Date, Start DayOfWeek, Duration {#days}, Source:Start DayOfWeek,  Use Daylight Saving, Use Holidays, Apply Weekend Holiday Rule,  Use Rain Values, Use Snow Values
! <Environment:Special Days>, Special Day Name, Special Day Type, Source, Start Date, Duration {#days}
! <Environment:Daylight Saving>, Daylight Saving Indicator, Source, Start Date, End Date
! <Environment:WarmupDays>, NumberofWarmupDays
Environment,RUNPERIOD 1,WeatherFileRunPeriod,01/01/2017,12/31/2017,Sunday,365,Use RunPeriod Specified Day,No,No,No,Yes,Yes
Environment:Daylight Saving,Yes,InputFile,03/12,11/05
Environment:Special Days,NEW YEARS DAY,Holiday,InputFile,01/01,  1
Environment:Special Days,VETERANS DAY,Holiday,InputFile,11/11,  1
Environment:Special Days,CHRISTMAS,Holiday,InputFile,12/25,  1
Environment:Special Days,INDEPENDENCE DAY,Holiday,InputFile,07/04,  1
Environment:Special Days,MLK DAY,Holiday,InputFile,01/16,  1
Environment:Special Days,PRESIDENTS DAY,Holiday,InputFile,02/20,  1
Environment:Special Days,MEMORIAL DAY,Holiday,InputFile,05/29,  1
Environment:Special Days,LABOR DAY,Holiday,InputFile,09/04,  1
Environment:Special Days,COLUMBUS DAY,Holiday,InputFile,10/09,  1
Environment:Special Days,THANKSGIVING,Holiday,InputFile,11/23,  1
Environment:WarmupDays,  7
! <Warmup Convergence Information>,Zone Name,Environment Type/Name,Average Warmup Temperature Difference {deltaC},Std Dev Warmup Temperature Difference {deltaC},Max Temperature Pass/Fail Convergence,Min Temperature Pass/Fail Convergence,Average Warmup Load Difference {W},Std Dev Warmup Load Difference {W},Heating Load Pass/Fail Convergence,Cooling Load Pass/Fail Convergence
 Warmup Convergence Information,AUDITORIUM_ZN_1_FLR_1,RunPeriod: RUNPERIOD 1,0.2857268159,0.2789918492,Pass,Pass,0.4845399198,0.6062340698,Pass,Pass
 Warmup Convergence Information,AUX_GYM_ZN_1_FLR_1,RunPeriod: RUNPERIOD 1,0.2648383846,0.2859152969,Pass,Pass,0.6846515910,1.3871851230,Pass,Pass
 Warmup Convergence Information,BATHROOMS_ZN_1_FLR_1,RunPeriod: RUNPERIOD 1,0.3784033960,0.4437269877,Pass,Pass,0.4956940627,0.4880719947,Pass,Pass
 Warmup Convergence Information,BATHROOMS_ZN_1_FLR_2,RunPeriod: RUNPERIOD 1,0.6468213279,0.6425205396,Pass,Pass,0.5164811365,0.4787825963,Pass,Pass
 Warmup Convergence Information,CAFETERIA_ZN_1_FLR_1,RunPeriod: RUNPERIOD 1,0.1353271520,0.2403986700,Pass,Pass,0.2390153355,0.4498477634,Pass,Pass
 Warmup Convergence Information,CORNER_CLASS_1_POD_1_ZN_1_FLR_1,RunPeriod: RUNPERIOD 1,0.4648096221,0.6448886845,Pass,Pass,0.5272592728,0.5431752445,Pass,Pass
 Warmup Convergence Information,CORNER_CLASS_1_POD_1_ZN_1_FLR_2,RunPeriod: RUNPERIOD 1,0.7307335700,0.8214688354,Pass,Pass,0.4988105711,0.4849009881,Pass,Pass
 Warmup Convergence Information,CORNER_CLASS_1_POD_2_ZN_1_FLR_1,RunPeriod: RUNPERIOD 1,0.4907391920,0.6483472561,Pass,Pass,0.5197015175,0.5345196181,Pass,Pass
 Warmup Convergence Information,CORNER_CLASS_1_POD_2_ZN_1_FLR_2,RunPeriod: RUNPERIOD 1,0.7377108144,0.8233533031,Pass,Pass,0.4994260041,0.4850410645,Pass,Pass
 Warmup Convergence Information,CORNER_CLASS_1_POD_3_ZN_1_FLR_1,RunPeriod: RUNPERIOD 1,0.4857804822,0.6484341602,Pass,Pass,0.5315208054,0.5769489582,Pass,Pass
 Warmup Convergence Information,CORNER_CLASS_1_POD_3_ZN_1_FLR_2,RunPeriod: RUNPERIOD 1,0.7368254665,0.8234986760,Pass,Pass,0.4994011949,0.4850035525,Pass,Pass
 Warmup Convergence Information,CORNER_CLASS_2_POD_1_ZN_1_FLR_1,RunPeriod: RUNPERIOD 1,0.5993004566,0.6511678459,Pass,Pass,0.4948207249,0.4853199771,Pass,Pass
 Warmup Convergence Information,CORNER_CLASS_2_POD_1_ZN_1_FLR_2,RunPeriod: RUNPERIOD 1,0.8734890084,0.8713220937,Pass,Pass,0.5081242135,0.4801161278,Pass,Pass
 Warmup Convergence Information,CORNER_CLASS_2_POD_2_ZN_1_FLR_1,RunPeriod: RUNPERIOD 1,0.6015556003,0.6516705582,Pass,Pass,0.4950106900,0.4853493953,Pass,Pass
 Warmup Convergence Information,CORNER_CLASS_2_POD_2_ZN_1_FLR_2,RunPeriod: RUNPERIOD 1,0.8740915705,0.8719683253,Pass,Pass,0.5082744481,0.4802490973,Pass,Pass
 Warmup Convergence Information,CORNER_CLASS_2_POD_3_ZN_1_FLR_1,RunPeriod: RUNPERIOD 1,0.6014207590,0.6543454246,Pass,Pass,0.4947351204,0.4852621578,Pass,Pass
 Warmup Convergence Information,CORNER_CLASS_2_POD_3_ZN_1_FLR_2,RunPeriod: RUNPERIOD 1,0.8742576908,0.8729129557,Pass,Pass,0.5081087369,0.4799978304,Pass,Pass
 Warmup Convergence Information,CORRIDOR_POD_1_ZN_1_FLR_1,RunPeriod: RUNPERIOD 1,5.2156824201E-002,3.9309958085E-002,Pass,Pass,0.4875903044,0.4964032696,Pass,Pass
 Warmup Convergence Information,CORRIDOR_POD_1_ZN_1_FLR_2,RunPeriod: RUNPERIOD 1,0.1424310356,0.1638193567,Pass,Pass,0.5428371677,0.4877031792,Pass,Pass
 Warmup Convergence Information,CORRIDOR_POD_2_ZN_1_FLR_1,RunPeriod: RUNPERIOD 1,4.3510587179E-002,3.2627867470E-002,Pass,Pass,0.4873719269,0.4968397026,Pass,Pass
 Warmup Convergence Information,CORRIDOR_POD_2_ZN_1_FLR_2,RunPeriod: RUNPERIOD 1,0.1495248361,0.1695229198,Pass,Pass,0.5445571501,0.4895515566,Pass,Pass
 Warmup Convergence Information,CORRIDOR_POD_3_ZN_1_FLR_1,RunPeriod: RUNPERIOD 1,4.4072416554E-002,3.2935228732E-002,Pass,Pass,0.4873998389,0.4968018446,Pass,Pass
 Warmup Convergence Information,CORRIDOR_POD_3_ZN_1_FLR_2,RunPeriod: RUNPERIOD 1,0.1512847117,0.1714591553,Pass,Pass,0.5441592682,0.4890969194,Pass,Pass
 Warmup Convergence Information,GYM_ZN_1_FLR_1,RunPeriod: RUNPERIOD 1,9.3498776117E-002,0.1531156708,Pass,Pass,0.1127747047,0.3268762283,Pass,Pass
 Warmup Convergence Information,KITCHEN_ZN_1_FLR_1,RunPeriod: RUNPERIOD 1,1.7452239013E-002,3.6911977056E-002,Pass,Pass,8.4834555982E-003,7.6425240939E-002,Pass,Pass
 Warmup Convergence Information,LIBRARY_MEDIA_CENTER_ZN_1_FLR_2,RunPeriod: RUNPERIOD 1,0.3046141463,0.3244369743,Pass,Pass,0.5185202082,0.4805006445,Pass,Pass
 Warmup Convergence Information,LOBBY_ZN_1_FLR_1,RunPeriod: RUNPERIOD 1,0.1184353849,0.1545545171,Pass,Pass,0.5131001407,0.5235577805,Pass,Pass
 Warmup Convergence Information,LOBBY_ZN_1_FLR_2,RunPeriod: RUNPERIOD 1,0.2905040354,0.3650681455,Pass,Pass,0.5139233663,0.5043060816,Pass,Pass
 Warmup Convergence Information,MAIN_CORRIDOR_ZN_1_FLR_1,RunPeriod: RUNPERIOD 1,5.3856522549E-002,6.0750658229E-002,Pass,Pass,0.5154759362,0.4877436019,Pass,Pass
 Warmup Convergence Information,MAIN_CORRIDOR_ZN_1_FLR_2,RunPeriod: RUNPERIOD 1,0.2506149196,0.2657417992,Pass,Pass,0.5203454695,0.4798978991,Pass,Pass
 Warmup Convergence Information,MECH_ZN_1_FLR_1,RunPeriod: RUNPERIOD 1,0.1074311912,8.0988021613E-002,Pass,Pass,0.4889217506,0.4932726549,Pass,Pass
 Warmup Convergence Information,MECH_ZN_1_FLR_2,RunPeriod: RUNPERIOD 1,2.8050876290E-002,4.3365212780E-002,Pass,Pass,4.0222118120,41.8759232691,Pass,Pass
 Warmup Convergence Information,MULT_CLASS_1_POD_1_ZN_1_FLR_1,RunPeriod: RUNPERIOD 1,0.2048664350,0.2761968922,Pass,Pass,0.5249444819,0.5704504737,Pass,Pass
 Warmup Convergence Information,MULT_CLASS_1_POD_1_ZN_1_FLR_2,RunPeriod: RUNPERIOD 1,0.3519643575,0.4578148363,Pass,Pass,0.5460005005,0.5871597107,Pass,Pass
 Warmup Convergence Information,MULT_CLASS_1_POD_2_ZN_1_FLR_1,RunPeriod: RUNPERIOD 1,0.2040941319,0.2744284359,Pass,Pass,0.6332605802,1.5347636279,Pass,Pass
 Warmup Convergence Information,MULT_CLASS_1_POD_2_ZN_1_FLR_2,RunPeriod: RUNPERIOD 1,0.3629807864,0.4620796899,Pass,Pass,0.5688010539,0.9327190570,Pass,Pass
 Warmup Convergence Information,MULT_CLASS_1_POD_3_ZN_1_FLR_1,RunPeriod: RUNPERIOD 1,0.2031108841,0.2729991893,Pass,Pass,0.6734213217,2.2031743342,Pass,Pass
 Warmup Convergence Information,MULT_CLASS_1_POD_3_ZN_1_FLR_2,RunPeriod: RUNPERIOD 1,0.3620578244,0.4710349853,Pass,Pass,0.5530307478,0.7765753770,Pass,Pass
 Warmup Convergence Information,MULT_CLASS_2_POD_1_ZN_1_FLR_1,RunPeriod: RUNPERIOD 1,0.2226579008,0.3009827019,Pass,Pass,0.5043316905,0.4909824798,Pass,Pass
 Warmup Convergence Information,MULT_CLASS_2_POD_1_ZN_1_FLR_2,RunPeriod: RUNPERIOD 1,0.4993759495,0.4907445898,Pass,Pass,0.5236645825,0.4836465624,Pass,Pass
 Warmup Convergence Information,MULT_CLASS_2_POD_2_ZN_1_FLR_1,RunPeriod: RUNPERIOD 1,0.2259482450,0.3025189761,Pass,Pass,0.5041646024,0.4906075947,Pass,Pass
 Warmup Convergence Information,MULT_CLASS_2_POD_2_ZN_1_FLR_2,RunPeriod: RUNPERIOD 1,0.5003845190,0.4913168807,Pass,Pass,0.5239459370,0.4836949112,Pass,Pass
 Warmup Convergence Information,MULT_CLASS_2_POD_3_ZN_1_FLR_1,RunPeriod: RUNPERIOD 1,0.2282493883,0.3081122185,Pass,Pass,0.5038450394,0.4910201508,Pass,Pass
 Warmup Convergence Information,MULT_CLASS_2_POD_3_ZN_1_FLR_2,RunPeriod: RUNPERIOD 1,0.5020824037,0.5071078772,Pass,Pass,0.5246938682,0.4838106949,Pass,Pass
 Warmup Convergence Information,OFFICES_ZN_1_FLR_1,RunPeriod: RUNPERIOD 1,0.1627588847,0.2194190060,Pass,Pass,0.5211938144,0.5579797973,Pass,Pass
 Warmup Convergence Information,OFFICES_ZN_1_FLR_2,RunPeriod: RUNPERIOD 1,0.3087898912,0.4005582989,Pass,Pass,0.6412652658,1.7642433569,Pass,Pass
! <Program Control Information:Threads/Parallel Sims>, Threading Supported,Maximum Number of Threads, Env Set Threads (OMP_NUM_THREADS), EP Env Set Threads (EP_OMP_NUM_THREADS), IDF Set Threads, Number of Threads Used (Interior Radiant Exchange), Number Nominal Surfaces, Number Parallel Sims
Program Control:Threads/Parallel Sims, No,1, N/A, N/A, N/A, N/A, N/A, N/A
End of Data
