Program Version,EnergyPlus, Version 9.2.0-921312fa1d, YMD=2020.12.22 18:09
! <Version>, Version ID
 Version, 9.2
! <Timesteps per Hour>, #TimeSteps, Minutes per TimeStep {minutes}
 Timesteps per Hour,  6, 10
! <System Convergence Limits>, Minimum System TimeStep {minutes}, Max HVAC Iterations, Minimum Plant Iterations, Maximum Plant Iterations
 System Convergence Limits, 2, 25, 2, 8
! <Simulation Control>, Do Zone Sizing, Do System Sizing, Do Plant Sizing, Do Design Days, Do Weather Simulation, Do HVAC Sizing Simulation
 Simulation Control, Yes, Yes, Yes, No, Yes, No
! <Output Reporting Tolerances>, Tolerance for Time Heating Setpoint Not Met, Tolerance for Zone Cooling Setpoint Not Met Time
 Output Reporting Tolerances, 0.556, 0.556, 
! <Site:GroundTemperature:BuildingSurface>,Jan{C},Feb{C},Mar{C},Apr{C},May{C},Jun{C},Jul{C},Aug{C},Sep{C},Oct{C},Nov{C},Dec{C}
 Site:GroundTemperature:BuildingSurface,  19.53,  19.50,  19.54,  19.60,  20.00,  21.64,  22.23,  22.38,  21.45,  20.12,  19.80,  19.63
! <Site:GroundTemperature:FCfactorMethod>,Jan{C},Feb{C},Mar{C},Apr{C},May{C},Jun{C},Jul{C},Aug{C},Sep{C},Oct{C},Nov{C},Dec{C}
 Site:GroundTemperature:FCfactorMethod,  -1.89,  -3.06,  -0.99,   2.23,  10.68,  17.20,  21.60,  22.94,  20.66,  15.60,   8.83,   2.56
! <Site:GroundTemperature:Shallow>,Jan{C},Feb{C},Mar{C},Apr{C},May{C},Jun{C},Jul{C},Aug{C},Sep{C},Oct{C},Nov{C},Dec{C}
 Site:GroundTemperature:Shallow,  13.00,  13.00,  13.00,  13.00,  13.00,  13.00,  13.00,  13.00,  13.00,  13.00,  13.00,  13.00
! <Site:GroundTemperature:Deep>,Jan{C},Feb{C},Mar{C},Apr{C},May{C},Jun{C},Jul{C},Aug{C},Sep{C},Oct{C},Nov{C},Dec{C}
 Site:GroundTemperature:Deep,  16.00,  16.00,  16.00,  16.00,  16.00,  16.00,  16.00,  16.00,  16.00,  16.00,  16.00,  16.00
! <Site:GroundReflectance>,Jan{dimensionless},Feb{dimensionless},Mar{dimensionless},Apr{dimensionless},May{dimensionless},Jun{dimensionless},Jul{dimensionless},Aug{dimensionless},Sep{dimensionless},Oct{dimensionless},Nov{dimensionless},Dec{dimensionless}
 Site:GroundReflectance,  0.20,  0.20,  0.20,  0.20,  0.20,  0.20,  0.20,  0.20,  0.20,  0.20,  0.20,  0.20
! <Site:GroundReflectance:SnowModifier>, Normal, Daylighting {dimensionless}
 Site:GroundReflectance:SnowModifier,   1.000,   1.000
! <Site:GroundReflectance:Snow>,Jan{dimensionless},Feb{dimensionless},Mar{dimensionless},Apr{dimensionless},May{dimensionless},Jun{dimensionless},Jul{dimensionless},Aug{dimensionless},Sep{dimensionless},Oct{dimensionless},Nov{dimensionless},Dec{dimensionless}
 Site:GroundReflectance:Snow,  0.20,  0.20,  0.20,  0.20,  0.20,  0.20,  0.20,  0.20,  0.20,  0.20,  0.20,  0.20
! <Site:GroundReflectance:Snow:Daylighting>,Jan{dimensionless},Feb{dimensionless},Mar{dimensionless},Apr{dimensionless},May{dimensionless},Jun{dimensionless},Jul{dimensionless},Aug{dimensionless},Sep{dimensionless},Oct{dimensionless},Nov{dimensionless},Dec{dimensionless}
 Site:GroundReflectance:Snow:Daylighting,  0.20,  0.20,  0.20,  0.20,  0.20,  0.20,  0.20,  0.20,  0.20,  0.20,  0.20,  0.20
! <Environment:Weather Station>,Wind Sensor Height Above Ground {m},Wind Speed Profile Exponent {},Wind Speed Profile Boundary Layer Thickness {m},Air Temperature Sensor Height Above Ground {m},Wind Speed Modifier Coefficient-Internal,Temperature Modifier Coefficient-Internal
Environment:Weather Station,10.000,0.140,270.000,1.500,1.586,9.750E-003
! <Site:Location>, Location Name, Latitude {N+/S- Deg}, Longitude {E+/W- Deg},  Time Zone Number {GMT+/-}, Elevation {m},  Standard Pressure at Elevation {Pa}, Standard RhoAir at Elevation
Site:Location,Chicago Ohare Intl Ap IL USA TMY3 WMO#=725300,41.98,-87.92,-6.00,201.00,98934,1.1759
! <Site Water Mains Temperature Information>,Calculation Method{},Water Mains Temperature Schedule Name{},Annual Average Outdoor Air Temperature{C},Maximum Difference In Monthly Average Outdoor Air Temperatures{deltaC},Fixed Default Water Mains Temperature{C}
Site Water Mains Temperature Information,Correlation,NA,9.69,28.10,NA
! Schedule Details Report=Hourly =====================
! <ScheduleType>,Name,Limited? {Yes/No},Minimum,Maximum,Continuous? {Yes/No - Discrete}
! <DaySchedule>,Name,ScheduleType,Interpolated {Yes/No},Time (HH:MM) =>,01:00,02:00,03:00,04:00,05:00,06:00,07:00,08:00,09:00,10:00,11:00,12:00,13:00,14:00,15:00,16:00,17:00,18:00,19:00,20:00,21:00,22:00,23:00,24:00
! <WeekSchedule>,Name,Sunday,Monday,Tuesday,Wednesday,Thursday,Friday,Saturday,Holiday,SummerDesignDay,WinterDesignDay,CustomDay1,CustomDay2
! <Schedule>,Name,ScheduleType,{Until Date,WeekSchedule}** Repeated until Dec 31
ScheduleTypeLimits,ANY NUMBER,No,N/A,N/A,N/A
ScheduleTypeLimits,FRACTION,Average,0.00,1.00,Yes
ScheduleTypeLimits,TEMPERATURE,Average,-60.00,200.00,Yes
ScheduleTypeLimits,ON/OFF,Average,0,1,No
ScheduleTypeLimits,CONTROL TYPE,Average,0,4,No
ScheduleTypeLimits,HUMIDITY,Average,10.00,90.00,Yes
ScheduleTypeLimits,NUMBER,No,N/A,N/A,N/A
DaySchedule,ALWAYS_ON_dy_1,ON/OFF,No,Values:,1.00,1.00,1.00,1.00,1.00,1.00,1.00,1.00,1.00,1.00,1.00,1.00,1.00,1.00,1.00,1.00,1.00,1.00,1.00,1.00,1.00,1.00,1.00,1.00
DaySchedule,KITCHEN_EXHAUST_SCH_dy_1,FRACTION,No,Values:,0.00,0.00,0.00,0.00,0.00,0.00,1.00,1.00,1.00,1.00,1.00,1.00,1.00,1.00,1.00,1.00,1.00,1.00,1.00,1.00,1.00,0.00,0.00,0.00
DaySchedule,KITCHEN_EXHAUST_SCH_dy_2,FRACTION,No,Values:,0.00,0.00,0.00,0.00,0.00,0.00,0.00,0.00,0.00,0.00,0.00,0.00,0.00,0.00,0.00,0.00,0.00,0.00,0.00,0.00,0.00,0.00,0.00,0.00
DaySchedule,BLDG_ELEVATORS_dy_1,FRACTION,No,Values:,0.00,0.00,0.00,0.00,0.00,0.00,0.00,0.00,0.30,0.30,0.30,0.30,0.30,0.30,0.30,0.15,0.00,0.00,0.00,0.00,0.00,0.00,0.00,0.00
DaySchedule,BLDG_ELEVATORS_dy_2,FRACTION,No,Values:,0.00,0.00,0.00,0.00,0.00,0.00,0.00,0.00,0.00,0.00,0.00,0.00,0.00,0.00,0.00,0.00,0.00,0.00,0.00,0.00,0.00,0.00,0.00,0.00
DaySchedule,BLDG_EQUIP_SCH_dy_1,FRACTION,No,Values:,0.35,0.35,0.35,0.35,0.35,0.35,0.35,0.35,0.95,0.95,0.95,0.95,0.95,0.95,0.95,0.95,0.95,0.35,0.35,0.35,0.35,0.35,0.35,0.35
DaySchedule,BLDG_EQUIP_SCH_dy_2,FRACTION,No,Values:,0.35,0.35,0.35,0.35,0.35,0.35,0.35,0.35,0.35,0.35,0.35,0.35,0.35,0.35,0.35,0.35,0.35,0.35,0.35,0.35,0.35,0.35,0.35,0.35
DaySchedule,BLDG_EQUIP_SCH_dy_3,FRACTION,No,Values:,0.25,0.25,0.25,0.25,0.25,0.25,0.25,0.25,0.50,0.50,0.50,0.50,0.50,0.50,0.50,0.50,0.50,0.25,0.25,0.25,0.25,0.25,0.25,0.25
DaySchedule,BLDG_EQUIP_SCH_dy_4,FRACTION,No,Values:,0.25,0.25,0.25,0.25,0.25,0.25,0.25,0.25,0.25,0.25,0.25,0.25,0.25,0.25,0.25,0.25,0.25,0.25,0.25,0.25,0.25,0.25,0.25,0.25
DaySchedule,BLDG_EQUIP_SCH_dy_5,FRACTION,No,Values:,0.35,0.35,0.35,0.35,0.35,0.35,0.35,0.35,0.95,0.95,0.95,0.95,0.95,0.95,0.95,0.95,0.95,0.35,0.35,0.35,0.35,0.35,0.35,0.35
DaySchedule,BLDG_EQUIP_SCH_dy_6,FRACTION,No,Values:,0.35,0.35,0.35,0.35,0.35,0.35,0.35,0.35,0.35,0.35,0.35,0.35,0.35,0.35,0.35,0.35,0.35,0.35,0.35,0.35,0.35,0.35,0.35,0.35
DaySchedule,BLDG_LIGHT_SCH_dy_1,FRACTION,No,Values:,0.18,0.18,0.18,0.18,0.18,0.18,0.18,0.90,0.90,0.90,0.90,0.90,0.90,0.90,0.90,0.90,0.90,0.90,0.90,0.90,0.90,0.18,0.18,0.18
DaySchedule,BLDG_LIGHT_SCH_dy_2,FRACTION,No,Values:,0.18,0.18,0.18,0.18,0.18,0.18,0.18,0.18,0.18,0.18,0.18,0.18,0.18,0.18,0.18,0.18,0.18,0.18,0.18,0.18,0.18,0.18,0.18,0.18
DaySchedule,BLDG_LIGHT_SCH_dy_3,FRACTION,No,Values:,0.18,0.18,0.18,0.18,0.18,0.18,0.18,0.18,0.50,0.50,0.50,0.50,0.50,0.50,0.50,0.50,0.50,0.50,0.50,0.50,0.18,0.18,0.18,0.18
DaySchedule,BLDG_LIGHT_SCH_dy_4,FRACTION,No,Values:,0.18,0.18,0.18,0.18,0.18,0.18,0.18,0.18,0.18,0.18,0.18,0.18,0.18,0.18,0.18,0.18,0.18,0.18,0.18,0.18,0.18,0.18,0.18,0.18
DaySchedule,BLDG_LIGHT_SCH_dy_5,FRACTION,No,Values:,0.18,0.18,0.18,0.18,0.18,0.18,0.18,0.90,0.90,0.90,0.90,0.90,0.90,0.90,0.90,0.90,0.90,0.90,0.90,0.90,0.90,0.18,0.18,0.18
DaySchedule,BLDG_LIGHT_SCH_dy_6,FRACTION,No,Values:,0.18,0.18,0.18,0.18,0.18,0.18,0.18,0.18,0.18,0.18,0.18,0.18,0.18,0.18,0.18,0.18,0.18,0.18,0.18,0.18,0.18,0.18,0.18,0.18
DaySchedule,BLDG_OCC_SCH_dy_1,FRACTION,No,Values:,0.00,0.00,0.00,0.00,0.00,0.00,0.00,0.00,0.70,0.70,0.70,0.70,0.70,0.70,0.70,0.70,0.15,0.15,0.15,0.15,0.15,0.00,0.00,0.00
DaySchedule,BLDG_OCC_SCH_dy_2,FRACTION,No,Values:,0.00,0.00,0.00,0.00,0.00,0.00,0.00,0.00,0.00,0.00,0.00,0.00,0.00,0.00,0.00,0.00,0.00,0.00,0.00,0.00,0.00,0.00,0.00,0.00
DaySchedule,BLDG_OCC_SCH_dy_3,FRACTION,No,Values:,0.00,0.00,0.00,0.00,0.00,0.00,0.00,0.00,0.15,0.15,0.15,0.15,0.15,0.15,0.15,0.15,0.15,0.15,0.15,0.15,0.15,0.00,0.00,0.00
DaySchedule,BLDG_OCC_SCH_dy_4,FRACTION,No,Values:,0.00,0.00,0.00,0.00,0.00,0.00,0.00,0.00,0.00,0.00,0.00,0.00,0.00,0.00,0.00,0.00,0.00,0.00,0.00,0.00,0.00,0.00,0.00,0.00
DaySchedule,BLDG_OCC_SCH_dy_5,FRACTION,No,Values:,0.00,0.00,0.00,0.00,0.00,0.00,0.00,0.00,0.70,0.70,0.70,0.70,0.70,0.70,0.70,0.70,0.15,0.15,0.15,0.15,0.15,0.00,0.00,0.00
DaySchedule,BLDG_OCC_SCH_dy_6,FRACTION,No,Values:,0.00,0.00,0.00,0.00,0.00,0.00,0.00,0.00,0.00,0.00,0.00,0.00,0.00,0.00,0.00,0.00,0.00,0.00,0.00,0.00,0.00,0.00,0.00,0.00
DaySchedule,BLDG_OCC_SCH_AUDITORIUM_dy_1,FRACTION,No,Values:,0.00,0.00,0.00,0.00,0.00,0.00,0.00,0.00,0.25,0.25,0.25,0.25,0.25,0.25,0.25,0.95,0.95,0.10,0.10,0.10,0.00,0.00,0.00,0.00
DaySchedule,BLDG_OCC_SCH_AUDITORIUM_dy_2,FRACTION,No,Values:,0.00,0.00,0.00,0.00,0.00,0.00,0.00,0.00,0.00,0.00,0.00,0.00,0.00,0.00,0.00,0.00,0.00,0.00,0.00,0.00,0.00,0.00,0.00,0.00
DaySchedule,BLDG_OCC_SCH_AUDITORIUM_dy_3,FRACTION,No,Values:,0.00,0.00,0.00,0.00,0.00,0.00,0.00,0.00,0.15,0.15,0.15,0.15,0.15,0.15,0.15,0.15,0.15,0.35,0.35,0.00,0.00,0.00,0.00,0.00
DaySchedule,BLDG_OCC_SCH_AUDITORIUM_dy_4,FRACTION,No,Values:,0.00,0.00,0.00,0.00,0.00,0.00,0.00,0.00,0.00,0.00,0.00,0.00,0.00,0.00,0.00,0.00,0.00,0.00,0.00,0.00,0.00,0.00,0.00,0.00
DaySchedule,BLDG_OCC_SCH_AUDITORIUM_dy_5,FRACTION,No,Values:,0.00,0.00,0.00,0.00,0.00,0.00,0.00,0.00,0.25,0.25,0.25,0.25,0.25,0.25,0.25,0.95,0.95,0.10,0.10,0.10,0.00,0.00,0.00,0.00
DaySchedule,BLDG_OCC_SCH_AUDITORIUM_dy_6,FRACTION,No,Values:,0.00,0.00,0.00,0.00,0.00,0.00,0.00,0.00,0.00,0.00,0.00,0.00,0.00,0.00,0.00,0.00,0.00,0.00,0.00,0.00,0.00,0.00,0.00,0.00
DaySchedule,BLDG_OCC_SCH_CAFETERIA_dy_1,FRACTION,No,Values:,0.00,0.00,0.00,0.00,0.00,0.00,0.00,0.15,0.15,5.00E-002,5.00E-002,0.95,0.95,0.15,0.15,0.00,0.00,0.00,0.00,0.00,0.00,0.00,0.00,0.00
DaySchedule,BLDG_OCC_SCH_CAFETERIA_dy_2,FRACTION,No,Values:,0.00,0.00,0.00,0.00,0.00,0.00,0.00,0.00,0.00,0.00,0.00,0.00,0.00,0.00,0.00,0.00,0.00,0.00,0.00,0.00,0.00,0.00,0.00,0.00
DaySchedule,BLDG_OCC_SCH_CAFETERIA_dy_3,FRACTION,No,Values:,0.00,0.00,0.00,0.00,0.00,0.00,0.00,0.00,0.00,0.25,0.25,0.25,0.25,0.25,0.25,0.00,0.00,0.00,0.00,0.00,0.00,0.00,0.00,0.00
DaySchedule,BLDG_OCC_SCH_CAFETERIA_dy_4,FRACTION,No,Values:,0.00,0.00,0.00,0.00,0.00,0.00,0.00,0.00,0.00,0.00,0.00,0.00,0.00,0.00,0.00,0.00,0.00,0.00,0.00,0.00,0.00,0.00,0.00,0.00
DaySchedule,BLDG_OCC_SCH_CAFETERIA_dy_5,FRACTION,No,Values:,0.00,0.00,0.00,0.00,0.00,0.00,0.00,0.15,0.15,5.00E-002,5.00E-002,0.95,0.95,0.15,0.15,0.00,0.00,0.00,0.00,0.00,0.00,0.00,0.00,0.00
DaySchedule,BLDG_OCC_SCH_CAFETERIA_dy_6,FRACTION,No,Values:,0.00,0.00,0.00,0.00,0.00,0.00,0.00,0.00,0.00,0.00,0.00,0.00,0.00,0.00,0.00,0.00,0.00,0.00,0.00,0.00,0.00,0.00,0.00,0.00
DaySchedule,BLDG_OCC_SCH_EXTEND_dy_1,FRACTION,No,Values:,0.00,0.00,0.00,0.00,0.00,0.00,0.00,0.00,0.70,0.70,0.70,0.70,0.70,0.70,0.70,0.70,0.70,0.70,0.70,0.70,0.70,0.00,0.00,0.00
DaySchedule,BLDG_OCC_SCH_EXTEND_dy_2,FRACTION,No,Values:,0.00,0.00,0.00,0.00,0.00,0.00,0.00,0.00,0.00,0.00,0.00,0.00,0.00,0.00,0.00,0.00,0.00,0.00,0.00,0.00,0.00,0.00,0.00,0.00
DaySchedule,BLDG_OCC_SCH_EXTEND_dy_3,FRACTION,No,Values:,0.00,0.00,0.00,0.00,0.00,0.00,0.00,0.00,0.50,0.50,0.50,0.50,0.50,0.50,0.50,0.50,0.50,0.50,0.50,0.50,0.50,0.00,0.00,0.00
DaySchedule,BLDG_OCC_SCH_EXTEND_dy_4,FRACTION,No,Values:,0.00,0.00,0.00,0.00,0.00,0.00,0.00,0.00,0.00,0.00,0.00,0.00,0.00,0.00,0.00,0.00,0.00,0.00,0.00,0.00,0.00,0.00,0.00,0.00
DaySchedule,BLDG_OCC_SCH_EXTEND_dy_5,FRACTION,No,Values:,0.00,0.00,0.00,0.00,0.00,0.00,0.00,0.00,0.70,0.70,0.70,0.70,0.70,0.70,0.70,0.70,0.70,0.70,0.70,0.70,0.70,0.00,0.00,0.00
DaySchedule,BLDG_OCC_SCH_EXTEND_dy_6,FRACTION,No,Values:,0.00,0.00,0.00,0.00,0.00,0.00,0.00,0.00,0.00,0.00,0.00,0.00,0.00,0.00,0.00,0.00,0.00,0.00,0.00,0.00,0.00,0.00,0.00,0.00
DaySchedule,BLDG_OCC_SCH_GYM_dy_1,FRACTION,No,Values:,0.00,0.00,0.00,0.00,0.00,0.00,0.00,0.00,0.35,0.35,0.35,0.35,0.35,0.35,0.35,0.35,0.95,0.95,0.95,0.95,0.95,0.00,0.00,0.00
DaySchedule,BLDG_OCC_SCH_GYM_dy_2,FRACTION,No,Values:,0.00,0.00,0.00,0.00,0.00,0.00,0.00,0.00,0.00,0.00,0.00,0.00,0.00,0.00,0.00,0.00,0.00,0.00,0.00,0.00,0.00,0.00,0.00,0.00
DaySchedule,BLDG_OCC_SCH_GYM_dy_3,FRACTION,No,Values:,0.00,0.00,0.00,0.00,0.00,0.00,0.00,0.00,0.35,0.35,0.35,0.35,0.35,0.35,0.35,0.35,0.35,0.35,0.35,0.35,0.35,0.00,0.00,0.00
DaySchedule,BLDG_OCC_SCH_GYM_dy_4,FRACTION,No,Values:,0.00,0.00,0.00,0.00,0.00,0.00,0.00,0.00,0.00,0.00,0.00,0.00,0.00,0.00,0.00,0.00,0.00,0.00,0.00,0.00,0.00,0.00,0.00,0.00
DaySchedule,BLDG_OCC_SCH_GYM_dy_5,FRACTION,No,Values:,0.00,0.00,0.00,0.00,0.00,0.00,0.00,0.00,0.35,0.35,0.35,0.35,0.35,0.35,0.35,0.35,0.95,0.95,0.95,0.95,0.95,0.00,0.00,0.00
DaySchedule,BLDG_OCC_SCH_GYM_dy_6,FRACTION,No,Values:,0.00,0.00,0.00,0.00,0.00,0.00,0.00,0.00,0.00,0.00,0.00,0.00,0.00,0.00,0.00,0.00,0.00,0.00,0.00,0.00,0.00,0.00,0.00,0.00
DaySchedule,BLDG_OCC_SCH_OFFICES_dy_1,FRACTION,No,Values:,0.00,0.00,0.00,0.00,0.00,0.00,0.00,0.00,0.95,0.95,0.95,0.95,0.95,0.95,0.95,0.95,0.95,0.15,0.15,0.15,0.15,0.00,0.00,0.00
DaySchedule,BLDG_OCC_SCH_OFFICES_dy_2,FRACTION,No,Values:,0.00,0.00,0.00,0.00,0.00,0.00,0.00,0.00,0.00,0.00,0.00,0.00,0.00,0.00,0.00,0.00,0.00,0.00,0.00,0.00,0.00,0.00,0.00,0.00
DaySchedule,BLDG_OCC_SCH_OFFICES_dy_3,FRACTION,No,Values:,0.00,0.00,0.00,0.00,0.00,0.00,0.00,0.00,0.50,0.50,0.50,0.50,0.50,0.50,0.50,0.50,0.50,0.00,0.00,0.00,0.00,0.00,0.00,0.00
DaySchedule,BLDG_OCC_SCH_OFFICES_dy_4,FRACTION,No,Values:,0.00,0.00,0.00,0.00,0.00,0.00,0.00,0.00,0.00,0.00,0.00,0.00,0.00,0.00,0.00,0.00,0.00,0.00,0.00,0.00,0.00,0.00,0.00,0.00
DaySchedule,BLDG_OCC_SCH_OFFICES_dy_5,FRACTION,No,Values:,0.00,0.00,0.00,0.00,0.00,0.00,0.00,0.00,0.95,0.95,0.95,0.95,0.95,0.95,0.95,0.95,0.95,0.15,0.15,0.15,0.15,0.00,0.00,0.00
DaySchedule,BLDG_OCC_SCH_OFFICES_dy_6,FRACTION,No,Values:,0.00,0.00,0.00,0.00,0.00,0.00,0.00,0.00,0.00,0.00,0.00,0.00,0.00,0.00,0.00,0.00,0.00,0.00,0.00,0.00,0.00,0.00,0.00,0.00
DaySchedule,KITCHEN_ELEC_EQUIP_SCH_dy_1,FRACTION,No,Values:,0.10,0.10,0.10,0.10,0.10,0.10,0.10,0.10,0.15,0.15,0.25,0.25,0.25,0.15,0.15,0.10,0.10,0.10,0.10,0.10,0.10,0.10,0.10,0.10
DaySchedule,KITCHEN_ELEC_EQUIP_SCH_dy_2,FRACTION,No,Values:,0.10,0.10,0.10,0.10,0.10,0.10,0.10,0.10,0.10,0.10,0.10,0.10,0.10,0.10,0.10,0.10,0.10,0.10,0.10,0.10,0.10,0.10,0.10,0.10
DaySchedule,KITCHEN_ELEC_EQUIP_SCH_dy_3,FRACTION,No,Values:,0.10,0.10,0.10,0.10,0.10,0.10,0.10,0.10,0.13,0.13,0.20,0.20,0.20,0.13,0.13,0.10,0.10,0.10,0.10,0.10,0.10,0.10,0.10,0.10
DaySchedule,KITCHEN_ELEC_EQUIP_SCH_dy_4,FRACTION,No,Values:,0.10,0.10,0.10,0.10,0.10,0.10,0.10,0.10,0.10,0.10,0.10,0.10,0.10,0.10,0.10,0.10,0.10,0.10,0.10,0.10,0.10,0.10,0.10,0.10
DaySchedule,KITCHEN_ELEC_EQUIP_SCH_dy_5,FRACTION,No,Values:,0.10,0.10,0.10,0.10,0.10,0.10,0.10,0.10,0.15,0.15,0.25,0.25,0.25,0.15,0.15,0.10,0.10,0.10,0.10,0.10,0.10,0.10,0.10,0.10
DaySchedule,KITCHEN_ELEC_EQUIP_SCH_dy_6,FRACTION,No,Values:,0.10,0.10,0.10,0.10,0.10,0.10,0.10,0.10,0.10,0.10,0.10,0.10,0.10,0.10,0.10,0.10,0.10,0.10,0.10,0.10,0.10,0.10,0.10,0.10
DaySchedule,KITCHEN_GAS_EQUIP_SCH_dy_1,FRACTION,No,Values:,2.00E-002,2.00E-002,2.00E-002,2.00E-002,2.00E-002,2.00E-002,2.00E-002,2.00E-002,0.15,0.15,0.20,0.20,0.20,0.10,0.10,2.00E-002,2.00E-002,2.00E-002,2.00E-002,2.00E-002,2.00E-002,2.00E-002,2.00E-002,2.00E-002
DaySchedule,KITCHEN_GAS_EQUIP_SCH_dy_2,FRACTION,No,Values:,2.00E-002,2.00E-002,2.00E-002,2.00E-002,2.00E-002,2.00E-002,2.00E-002,2.00E-002,2.00E-002,2.00E-002,2.00E-002,2.00E-002,2.00E-002,2.00E-002,2.00E-002,2.00E-002,2.00E-002,2.00E-002,2.00E-002,2.00E-002,2.00E-002,2.00E-002,2.00E-002,2.00E-002
DaySchedule,KITCHEN_GAS_EQUIP_SCH_dy_3,FRACTION,No,Values:,2.00E-002,2.00E-002,2.00E-002,2.00E-002,2.00E-002,2.00E-002,2.00E-002,2.00E-002,0.10,0.10,0.15,0.15,0.15,0.10,0.10,2.00E-002,2.00E-002,2.00E-002,2.00E-002,2.00E-002,2.00E-002,2.00E-002,2.00E-002,2.00E-002
DaySchedule,KITCHEN_GAS_EQUIP_SCH_dy_4,FRACTION,No,Values:,2.00E-002,2.00E-002,2.00E-002,2.00E-002,2.00E-002,2.00E-002,2.00E-002,2.00E-002,2.00E-002,2.00E-002,2.00E-002,2.00E-002,2.00E-002,2.00E-002,2.00E-002,2.00E-002,2.00E-002,2.00E-002,2.00E-002,2.00E-002,2.00E-002,2.00E-002,2.00E-002,2.00E-002
DaySchedule,KITCHEN_GAS_EQUIP_SCH_dy_5,FRACTION,No,Values:,2.00E-002,2.00E-002,2.00E-002,2.00E-002,2.00E-002,2.00E-002,2.00E-002,2.00E-002,0.15,0.15,0.20,0.20,0.20,0.10,0.10,2.00E-002,2.00E-002,2.00E-002,2.00E-002,2.00E-002,2.00E-002,2.00E-002,2.00E-002,2.00E-002
DaySchedule,KITCHEN_GAS_EQUIP_SCH_dy_6,FRACTION,No,Values:,2.00E-002,2.00E-002,2.00E-002,2.00E-002,2.00E-002,2.00E-002,2.00E-002,2.00E-002,2.00E-002,2.00E-002,2.00E-002,2.00E-002,2.00E-002,2.00E-002,2.00E-002,2.00E-002,2.00E-002,2.00E-002,2.00E-002,2.00E-002,2.00E-002,2.00E-002,2.00E-002,2.00E-002
DaySchedule,INFIL_SCH_dy_1,FRACTION,No,Values:,1.00,1.00,1.00,1.00,1.00,1.00,1.00,0.50,0.50,0.50,0.50,0.50,0.50,0.50,0.50,0.50,0.50,0.50,0.50,0.50,0.50,1.00,1.00,1.00
DaySchedule,ACTIVITY_SCH_dy_1,ANY NUMBER,No,Values:,120.00,120.00,120.00,120.00,120.00,120.00,120.00,120.00,120.00,120.00,120.00,120.00,120.00,120.00,120.00,120.00,120.00,120.00,120.00,120.00,120.00,120.00,120.00,120.00
DaySchedule,AIR_VELO_SCH_dy_1,ANY NUMBER,No,Values:,0.20,0.20,0.20,0.20,0.20,0.20,0.20,0.20,0.20,0.20,0.20,0.20,0.20,0.20,0.20,0.20,0.20,0.20,0.20,0.20,0.20,0.20,0.20,0.20
DaySchedule,CLOTHING_SCH_dy_1,ANY NUMBER,No,Values:,1.10,1.10,1.10,1.10,1.10,1.10,1.10,1.10,1.10,1.10,1.10,1.10,1.10,1.10,1.10,1.10,1.10,1.10,1.10,1.10,1.10,1.10,1.10,1.10
DaySchedule,CLOTHING_SCH_dy_2,ANY NUMBER,No,Values:,0.60,0.60,0.60,0.60,0.60,0.60,0.60,0.60,0.60,0.60,0.60,0.60,0.60,0.60,0.60,0.60,0.60,0.60,0.60,0.60,0.60,0.60,0.60,0.60
DaySchedule,CLOTHING_SCH_dy_3,ANY NUMBER,No,Values:,1.10,1.10,1.10,1.10,1.10,1.10,1.10,1.10,1.10,1.10,1.10,1.10,1.10,1.10,1.10,1.10,1.10,1.10,1.10,1.10,1.10,1.10,1.10,1.10
DaySchedule,WORK_EFF_SCH_dy_1,FRACTION,No,Values:,0.00,0.00,0.00,0.00,0.00,0.00,0.00,0.00,0.00,0.00,0.00,0.00,0.00,0.00,0.00,0.00,0.00,0.00,0.00,0.00,0.00,0.00,0.00,0.00
DaySchedule,CLGSETP_SCH_dy_1,TEMPERATURE,No,Values:,24.00,24.00,24.00,24.00,24.00,24.00,24.00,24.00,24.00,24.00,24.00,24.00,24.00,24.00,24.00,24.00,24.00,24.00,24.00,24.00,24.00,24.00,24.00,24.00
DaySchedule,CLGSETP_SCH_dy_2,TEMPERATURE,No,Values:,27.00,27.00,27.00,27.00,27.00,27.00,27.00,27.00,27.00,27.00,27.00,27.00,27.00,27.00,27.00,27.00,27.00,27.00,27.00,27.00,27.00,27.00,27.00,27.00
DaySchedule,CLGSETP_SCH_dy_3,TEMPERATURE,No,Values:,27.00,27.00,27.00,27.00,27.00,27.00,24.00,24.00,24.00,24.00,24.00,24.00,24.00,24.00,24.00,24.00,24.00,24.00,24.00,24.00,24.00,27.00,27.00,27.00
DaySchedule,CLGSETP_SCH_dy_4,TEMPERATURE,No,Values:,24.00,24.00,24.00,24.00,24.00,24.00,24.00,24.00,24.00,24.00,24.00,24.00,24.00,24.00,24.00,24.00,24.00,24.00,24.00,24.00,24.00,24.00,24.00,24.00
DaySchedule,CLGSETP_SCH_dy_5,TEMPERATURE,No,Values:,27.00,27.00,27.00,27.00,27.00,27.00,27.00,27.00,27.00,27.00,27.00,27.00,27.00,27.00,27.00,27.00,27.00,27.00,27.00,27.00,27.00,27.00,27.00,27.00
DaySchedule,CLGSETP_SCH_dy_6,TEMPERATURE,No,Values:,27.00,27.00,27.00,27.00,27.00,27.00,27.00,24.00,24.00,24.00,24.00,24.00,24.00,24.00,24.00,24.00,24.00,24.00,27.00,27.00,27.00,27.00,27.00,27.00
DaySchedule,CLGSETP_SCH_dy_7,TEMPERATURE,No,Values:,24.00,24.00,24.00,24.00,24.00,24.00,24.00,24.00,24.00,24.00,24.00,24.00,24.00,24.00,24.00,24.00,24.00,24.00,24.00,24.00,24.00,24.00,24.00,24.00
DaySchedule,CLGSETP_SCH_dy_8,TEMPERATURE,No,Values:,27.00,27.00,27.00,27.00,27.00,27.00,27.00,27.00,27.00,27.00,27.00,27.00,27.00,27.00,27.00,27.00,27.00,27.00,27.00,27.00,27.00,27.00,27.00,27.00
DaySchedule,CLGSETP_SCH_dy_9,TEMPERATURE,No,Values:,27.00,27.00,27.00,27.00,27.00,27.00,24.00,24.00,24.00,24.00,24.00,24.00,24.00,24.00,24.00,24.00,24.00,24.00,24.00,24.00,24.00,27.00,27.00,27.00
DaySchedule,CLGSETP_SCH_BATHCORRMECHKITCHEN_dy_1,TEMPERATURE,No,Values:,27.00,27.00,27.00,27.00,27.00,27.00,24.00,24.00,24.00,24.00,24.00,24.00,24.00,24.00,24.00,24.00,24.00,24.00,24.00,24.00,24.00,27.00,27.00,27.00
DaySchedule,CLGSETP_SCH_BATHCORRMECHKITCHEN_dy_2,TEMPERATURE,No,Values:,27.00,27.00,27.00,27.00,27.00,27.00,27.00,27.00,27.00,27.00,27.00,27.00,27.00,27.00,27.00,27.00,27.00,27.00,27.00,27.00,27.00,27.00,27.00,27.00
DaySchedule,HTGSETP_SCH_dy_1,TEMPERATURE,No,Values:,21.00,21.00,21.00,21.00,21.00,21.00,21.00,21.00,21.00,21.00,21.00,21.00,21.00,21.00,21.00,21.00,21.00,21.00,21.00,21.00,21.00,21.00,21.00,21.00
DaySchedule,HTGSETP_SCH_dy_2,TEMPERATURE,No,Values:,16.00,16.00,16.00,16.00,16.00,16.00,16.00,16.00,16.00,16.00,16.00,16.00,16.00,16.00,16.00,16.00,16.00,16.00,16.00,16.00,16.00,16.00,16.00,16.00
DaySchedule,HTGSETP_SCH_dy_3,TEMPERATURE,No,Values:,16.00,16.00,16.00,16.00,16.00,16.00,21.00,21.00,21.00,21.00,21.00,21.00,21.00,21.00,21.00,21.00,21.00,21.00,21.00,21.00,21.00,16.00,16.00,16.00
DaySchedule,HTGSETP_SCH_dy_4,TEMPERATURE,No,Values:,21.00,21.00,21.00,21.00,21.00,21.00,21.00,21.00,21.00,21.00,21.00,21.00,21.00,21.00,21.00,21.00,21.00,21.00,21.00,21.00,21.00,21.00,21.00,21.00
DaySchedule,HTGSETP_SCH_dy_5,TEMPERATURE,No,Values:,16.00,16.00,16.00,16.00,16.00,16.00,16.00,16.00,16.00,16.00,16.00,16.00,16.00,16.00,16.00,16.00,16.00,16.00,16.00,16.00,16.00,16.00,16.00,16.00
DaySchedule,HTGSETP_SCH_dy_6,TEMPERATURE,No,Values:,16.00,16.00,16.00,16.00,16.00,16.00,16.00,21.00,21.00,21.00,21.00,21.00,21.00,21.00,21.00,21.00,21.00,21.00,16.00,16.00,16.00,16.00,16.00,16.00
DaySchedule,HTGSETP_SCH_dy_7,TEMPERATURE,No,Values:,21.00,21.00,21.00,21.00,21.00,21.00,21.00,21.00,21.00,21.00,21.00,21.00,21.00,21.00,21.00,21.00,21.00,21.00,21.00,21.00,21.00,21.00,21.00,21.00
DaySchedule,HTGSETP_SCH_dy_8,TEMPERATURE,No,Values:,16.00,16.00,16.00,16.00,16.00,16.00,16.00,16.00,16.00,16.00,16.00,16.00,16.00,16.00,16.00,16.00,16.00,16.00,16.00,16.00,16.00,16.00,16.00,16.00
DaySchedule,HTGSETP_SCH_dy_9,TEMPERATURE,No,Values:,16.00,16.00,16.00,16.00,16.00,16.00,21.00,21.00,21.00,21.00,21.00,21.00,21.00,21.00,21.00,21.00,21.00,21.00,21.00,21.00,21.00,16.00,16.00,16.00
DaySchedule,HTGSETP_SCH_BATHCORRMECHKITCHEN_dy_1,TEMPERATURE,No,Values:,16.00,16.00,16.00,16.00,16.00,16.00,21.00,21.00,21.00,21.00,21.00,21.00,21.00,21.00,21.00,21.00,21.00,21.00,21.00,21.00,21.00,16.00,16.00,16.00
DaySchedule,HTGSETP_SCH_BATHCORRMECHKITCHEN_dy_2,TEMPERATURE,No,Values:,16.00,16.00,16.00,16.00,16.00,16.00,16.00,16.00,16.00,16.00,16.00,16.00,16.00,16.00,16.00,16.00,16.00,16.00,16.00,16.00,16.00,16.00,16.00,16.00
DaySchedule,HVACOPERATIONSCHD_dy_1,ON/OFF,No,Values:,0.00,0.00,0.00,0.00,0.00,0.00,1.00,1.00,1.00,1.00,1.00,1.00,1.00,1.00,1.00,1.00,1.00,1.00,1.00,1.00,1.00,0.00,0.00,0.00
DaySchedule,HVACOPERATIONSCHD_dy_2,ON/OFF,No,Values:,0.00,0.00,0.00,0.00,0.00,0.00,0.00,0.00,0.00,0.00,0.00,0.00,0.00,0.00,0.00,0.00,0.00,0.00,0.00,0.00,0.00,0.00,0.00,0.00
DaySchedule,MINOA_SCHED_dy_1,ON/OFF,No,Values:,0.00,0.00,0.00,0.00,0.00,0.00,1.00,1.00,1.00,1.00,1.00,1.00,1.00,1.00,1.00,1.00,1.00,1.00,1.00,1.00,1.00,0.00,0.00,0.00
DaySchedule,MINOA_SCHED_dy_2,ON/OFF,No,Values:,0.00,0.00,0.00,0.00,0.00,0.00,0.00,0.00,0.00,0.00,0.00,0.00,0.00,0.00,0.00,0.00,0.00,0.00,0.00,0.00,0.00,0.00,0.00,0.00
DaySchedule,DUAL ZONE CONTROL TYPE SCHED_dy_1,CONTROL TYPE,No,Values:,4.00,4.00,4.00,4.00,4.00,4.00,4.00,4.00,4.00,4.00,4.00,4.00,4.00,4.00,4.00,4.00,4.00,4.00,4.00,4.00,4.00,4.00,4.00,4.00
DaySchedule,HW-LOOP-TEMP-SCHEDULE_dy_1,TEMPERATURE,No,Values:,67.00,67.00,67.00,67.00,67.00,67.00,67.00,67.00,67.00,67.00,67.00,67.00,67.00,67.00,67.00,67.00,67.00,67.00,67.00,67.00,67.00,67.00,67.00,67.00
DaySchedule,PLANTONSCHED_dy_1,ANY NUMBER,No,Values:,1.00,1.00,1.00,1.00,1.00,1.00,1.00,1.00,1.00,1.00,1.00,1.00,1.00,1.00,1.00,1.00,1.00,1.00,1.00,1.00,1.00,1.00,1.00,1.00
DaySchedule,KITCHEN_ZN_1_FLR_1_CASE:1_WALKINFREEZER_CASECREDITREDUXSCHED_dy_1,FRACTION,No,Values:,0.20,0.20,0.20,0.20,0.20,0.20,0.20,0.40,0.40,0.40,0.40,0.40,0.40,0.40,0.40,0.40,0.40,0.40,0.40,0.40,0.40,0.20,0.20,0.20
DaySchedule,KITCHEN_ZN_1_FLR_1_CASE:1_WALKINFREEZER_CASEDEFROST2ADAYSCHED_dy_1,ON/OFF,Average,Values:,0.00,0.00,0.00,0.00,0.00,0.00,0.00,0.00,0.00,0.00,0.00,0.00,0.00,0.00,0.00,0.00,0.00,0.00,0.00,0.00,0.00,0.00,0.00,0.00
DaySchedule,KITCHEN_ZN_1_FLR_1_CASE:1_WALKINFREEZER_CASEDRIPDOWN2ADAYSCHED_dy_1,ON/OFF,Average,Values:,0.00,0.00,0.00,0.00,0.00,0.00,0.00,0.00,0.00,0.00,0.00,0.00,0.00,0.00,0.00,0.00,0.00,0.00,0.00,0.00,0.00,0.00,0.00,0.00
DaySchedule,KITCHEN_ZN_1_FLR_1_CASE:1_WALKINFREEZER_WALKINSTOCKINGSCHED_dy_1,ANY NUMBER,No,Values:,0.00,0.00,0.00,0.00,725.00,417.00,290.00,0.00,0.00,0.00,0.00,0.00,0.00,0.00,0.00,0.00,0.00,0.00,0.00,0.00,0.00,0.00,0.00,0.00
DaySchedule,KITCHEN_ZN_1_FLR_1_CASE:1_WALKINFREEZER_WALKINSTOCKINGSCHED_dy_2,ANY NUMBER,No,Values:,0.00,0.00,0.00,0.00,125.00,117.00,90.00,0.00,0.00,0.00,0.00,0.00,0.00,0.00,0.00,0.00,0.00,0.00,0.00,125.00,117.00,90.00,0.00,0.00
DaySchedule,KITCHEN_ZN_1_FLR_1_CASE:2_SELFCONTAINEDDISPLAYCASE_CASESTOCKINGSCHED_dy_1,ANY NUMBER,No,Values:,0.00,0.00,0.00,0.00,0.00,0.00,50.00,70.00,70.00,80.00,70.00,50.00,50.00,80.00,90.00,80.00,0.00,0.00,0.00,0.00,0.00,0.00,0.00,0.00
DaySchedule,BLDG_SWH_SCH_dy_1,FRACTION,No,Values:,5.00E-002,5.00E-002,5.00E-002,5.00E-002,5.00E-002,5.00E-002,5.00E-002,0.10,0.34,0.60,0.63,0.72,0.79,0.83,0.61,0.65,0.10,0.10,0.19,0.25,0.22,0.22,0.12,9.00E-002
DaySchedule,BLDG_SWH_SCH_dy_2,FRACTION,No,Values:,3.00E-002,3.00E-002,3.00E-002,3.00E-002,3.00E-002,3.00E-002,3.00E-002,3.00E-002,3.00E-002,5.00E-002,5.00E-002,5.00E-002,5.00E-002,3.00E-002,3.00E-002,3.00E-002,3.00E-002,3.00E-002,3.00E-002,3.00E-002,3.00E-002,3.00E-002,3.00E-002,3.00E-002
DaySchedule,BLDG_SWH_SCH_dy_3,FRACTION,No,Values:,3.00E-002,3.00E-002,3.00E-002,3.00E-002,3.00E-002,3.00E-002,3.00E-002,3.00E-002,5.00E-002,5.00E-002,5.00E-002,5.00E-002,5.00E-002,5.00E-002,3.00E-002,3.00E-002,3.00E-002,3.00E-002,3.00E-002,3.00E-002,3.00E-002,3.00E-002,3.00E-002,3.00E-002
DaySchedule,BLDG_SWH_SCH_dy_4,FRACTION,No,Values:,5.00E-002,5.00E-002,5.00E-002,5.00E-002,5.00E-002,5.00E-002,5.00E-002,0.10,0.10,0.10,0.10,0.10,0.10,0.10,0.10,0.10,0.10,0.10,0.19,0.25,0.22,0.22,0.12,9.00E-002
DaySchedule,BLDG_SWH_SCH_dy_5,FRACTION,No,Values:,3.00E-002,3.00E-002,3.00E-002,3.00E-002,3.00E-002,3.00E-002,3.00E-002,3.00E-002,3.00E-002,5.00E-002,5.00E-002,5.00E-002,5.00E-002,3.00E-002,3.00E-002,3.00E-002,3.00E-002,3.00E-002,3.00E-002,3.00E-002,3.00E-002,3.00E-002,3.00E-002,3.00E-002
DaySchedule,BLDG_SWH_SCH_dy_6,FRACTION,No,Values:,3.00E-002,3.00E-002,3.00E-002,3.00E-002,3.00E-002,3.00E-002,3.00E-002,3.00E-002,5.00E-002,5.00E-002,5.00E-002,5.00E-002,5.00E-002,5.00E-002,3.00E-002,3.00E-002,3.00E-002,3.00E-002,3.00E-002,3.00E-002,3.00E-002,3.00E-002,3.00E-002,3.00E-002
DaySchedule,BLDG_SWH_SCH_dy_7,FRACTION,No,Values:,5.00E-002,5.00E-002,5.00E-002,5.00E-002,5.00E-002,5.00E-002,5.00E-002,0.10,0.34,0.60,0.63,0.72,0.79,0.83,0.61,0.65,0.10,0.10,0.19,0.25,0.22,0.22,0.12,9.00E-002
DaySchedule,BLDG_SWH_SCH_dy_8,FRACTION,No,Values:,3.00E-002,3.00E-002,3.00E-002,3.00E-002,3.00E-002,3.00E-002,3.00E-002,3.00E-002,3.00E-002,5.00E-002,5.00E-002,5.00E-002,5.00E-002,3.00E-002,3.00E-002,3.00E-002,3.00E-002,3.00E-002,3.00E-002,3.00E-002,3.00E-002,3.00E-002,3.00E-002,3.00E-002
DaySchedule,BLDG_SWH_SCH_dy_9,FRACTION,No,Values:,3.00E-002,3.00E-002,3.00E-002,3.00E-002,3.00E-002,3.00E-002,3.00E-002,3.00E-002,5.00E-002,5.00E-002,5.00E-002,5.00E-002,5.00E-002,5.00E-002,3.00E-002,3.00E-002,3.00E-002,3.00E-002,3.00E-002,3.00E-002,3.00E-002,3.00E-002,3.00E-002,3.00E-002
DaySchedule,SHOWERS_SWH_SCH_dy_1,FRACTION,No,Values:,0.00,0.00,0.00,0.00,0.00,0.00,0.00,0.60,0.50,0.50,0.50,0.50,0.50,0.50,0.50,0.50,1.00,1.00,1.00,0.00,0.00,0.00,0.00,0.00
DaySchedule,SHOWERS_SWH_SCH_dy_2,FRACTION,No,Values:,0.00,0.00,0.00,0.00,0.00,0.00,0.00,0.00,0.00,0.00,0.40,0.14,0.14,0.14,0.14,0.14,0.00,0.00,0.00,0.00,0.00,0.80,0.00,0.00
DaySchedule,SHOWERS_SWH_SCH_dy_3,FRACTION,No,Values:,0.00,0.00,0.00,0.00,0.00,0.00,0.00,0.00,0.00,0.00,0.00,0.00,0.00,0.00,0.00,0.00,0.00,0.00,0.00,0.00,0.00,0.00,0.00,0.00
DaySchedule,SHOWERS_SWH_SCH_dy_4,FRACTION,No,Values:,0.00,0.00,0.00,0.00,0.00,0.00,0.00,0.00,0.30,0.10,0.10,0.10,0.10,0.10,0.10,0.10,0.00,0.00,0.00,0.00,0.00,0.00,0.00,0.00
DaySchedule,SHOWERS_SWH_SCH_dy_5,FRACTION,No,Values:,0.00,0.00,0.00,0.00,0.00,0.00,0.00,0.00,0.00,0.00,0.00,0.00,0.00,0.00,0.00,0.00,0.00,0.00,0.00,0.00,0.00,0.00,0.00,0.00
DaySchedule,SHOWERS_SWH_SCH_dy_6,FRACTION,No,Values:,0.00,0.00,0.00,0.00,0.00,0.00,0.00,0.60,0.50,0.50,0.50,0.50,0.50,0.50,0.50,0.50,1.00,1.00,1.00,0.00,0.00,0.00,0.00,0.00
DaySchedule,SHOWERS_SWH_SCH_dy_7,FRACTION,No,Values:,0.00,0.00,0.00,0.00,0.00,0.00,0.00,0.00,0.00,0.00,0.40,0.14,0.14,0.14,0.14,0.14,0.00,0.00,0.00,0.00,0.00,0.80,0.00,0.00
DaySchedule,SHOWERS_SWH_SCH_dy_8,FRACTION,No,Values:,0.00,0.00,0.00,0.00,0.00,0.00,0.00,0.00,0.00,0.00,0.00,0.00,0.00,0.00,0.00,0.00,0.00,0.00,0.00,0.00,0.00,0.00,0.00,0.00
DaySchedule,LATENT FRACT SCHED_dy_1,FRACTION,No,Values:,5.00E-002,5.00E-002,5.00E-002,5.00E-002,5.00E-002,5.00E-002,5.00E-002,5.00E-002,5.00E-002,5.00E-002,5.00E-002,5.00E-002,5.00E-002,5.00E-002,5.00E-002,5.00E-002,5.00E-002,5.00E-002,5.00E-002,5.00E-002,5.00E-002,5.00E-002,5.00E-002,5.00E-002
DaySchedule,SENSIBLE FRACT SCHED_dy_1,FRACTION,No,Values:,0.20,0.20,0.20,0.20,0.20,0.20,0.20,0.20,0.20,0.20,0.20,0.20,0.20,0.20,0.20,0.20,0.20,0.20,0.20,0.20,0.20,0.20,0.20,0.20
DaySchedule,HOT SUPPLY TEMP SCHED_dy_1,TEMPERATURE,No,Values:,43.30,43.30,43.30,43.30,43.30,43.30,43.30,43.30,43.30,43.30,43.30,43.30,43.30,43.30,43.30,43.30,43.30,43.30,43.30,43.30,43.30,43.30,43.30,43.30
DaySchedule,SHW_DEFAULT TEMP SCHED_dy_1,TEMPERATURE,No,Values:,43.30,43.30,43.30,43.30,43.30,43.30,43.30,43.30,43.30,43.30,43.30,43.30,43.30,43.30,43.30,43.30,43.30,43.30,43.30,43.30,43.30,43.30,43.30,43.30
DaySchedule,KITCHEN HOT SUPPLY TEMP SCHED_dy_1,TEMPERATURE,No,Values:,49.00,49.00,49.00,49.00,49.00,49.00,49.00,49.00,49.00,49.00,49.00,49.00,49.00,49.00,49.00,49.00,49.00,49.00,49.00,49.00,49.00,49.00,49.00,49.00
DaySchedule,SHW_KITCHEN TEMP SCHED_dy_1,TEMPERATURE,No,Values:,49.00,49.00,49.00,49.00,49.00,49.00,49.00,49.00,49.00,49.00,49.00,49.00,49.00,49.00,49.00,49.00,49.00,49.00,49.00,49.00,49.00,49.00,49.00,49.00
DaySchedule,SWHSYS1 WATER HEATER AMBIENT TEMPERATURE SCHEDULE NAME_dy_1,TEMPERATURE,No,Values:,22.00,22.00,22.00,22.00,22.00,22.00,22.00,22.00,22.00,22.00,22.00,22.00,22.00,22.00,22.00,22.00,22.00,22.00,22.00,22.00,22.00,22.00,22.00,22.00
DaySchedule,SWHSYS1 WATER HEATER SETPOINT TEMPERATURE SCHEDULE NAME_dy_1,TEMPERATURE,No,Values:,60.00,60.00,60.00,60.00,60.00,60.00,60.00,60.00,60.00,60.00,60.00,60.00,60.00,60.00,60.00,60.00,60.00,60.00,60.00,60.00,60.00,60.00,60.00,60.00
DaySchedule,SWHSYS1-LOOP-TEMP-SCHEDULE_dy_1,TEMPERATURE,No,Values:,60.00,60.00,60.00,60.00,60.00,60.00,60.00,60.00,60.00,60.00,60.00,60.00,60.00,60.00,60.00,60.00,60.00,60.00,60.00,60.00,60.00,60.00,60.00,60.00
Schedule:Week:Daily,ALWAYS_ON_wk_1,ALWAYS_ON_dy_1,ALWAYS_ON_dy_1,ALWAYS_ON_dy_1,ALWAYS_ON_dy_1,ALWAYS_ON_dy_1,ALWAYS_ON_dy_1,ALWAYS_ON_dy_1,ALWAYS_ON_dy_1,ALWAYS_ON_dy_1,ALWAYS_ON_dy_1,ALWAYS_ON_dy_1,ALWAYS_ON_dy_1
Schedule:Week:Daily,KITCHEN_EXHAUST_SCH_wk_1,KITCHEN_EXHAUST_SCH_dy_2,KITCHEN_EXHAUST_SCH_dy_1,KITCHEN_EXHAUST_SCH_dy_1,KITCHEN_EXHAUST_SCH_dy_1,KITCHEN_EXHAUST_SCH_dy_1,KITCHEN_EXHAUST_SCH_dy_1,KITCHEN_EXHAUST_SCH_dy_2,KITCHEN_EXHAUST_SCH_dy_2,KITCHEN_EXHAUST_SCH_dy_1,KITCHEN_EXHAUST_SCH_dy_2,KITCHEN_EXHAUST_SCH_dy_2,KITCHEN_EXHAUST_SCH_dy_2
Schedule:Week:Daily,BLDG_ELEVATORS_wk_1,BLDG_ELEVATORS_dy_2,BLDG_ELEVATORS_dy_1,BLDG_ELEVATORS_dy_1,BLDG_ELEVATORS_dy_1,BLDG_ELEVATORS_dy_1,BLDG_ELEVATORS_dy_1,BLDG_ELEVATORS_dy_2,BLDG_ELEVATORS_dy_2,BLDG_ELEVATORS_dy_1,BLDG_ELEVATORS_dy_2,BLDG_ELEVATORS_dy_2,BLDG_ELEVATORS_dy_2
Schedule:Week:Daily,BLDG_EQUIP_SCH_wk_1,BLDG_EQUIP_SCH_dy_2,BLDG_EQUIP_SCH_dy_1,BLDG_EQUIP_SCH_dy_1,BLDG_EQUIP_SCH_dy_1,BLDG_EQUIP_SCH_dy_1,BLDG_EQUIP_SCH_dy_1,BLDG_EQUIP_SCH_dy_2,BLDG_EQUIP_SCH_dy_2,BLDG_EQUIP_SCH_dy_1,BLDG_EQUIP_SCH_dy_2,BLDG_EQUIP_SCH_dy_2,BLDG_EQUIP_SCH_dy_2
Schedule:Week:Daily,BLDG_EQUIP_SCH_wk_2,BLDG_EQUIP_SCH_dy_4,BLDG_EQUIP_SCH_dy_3,BLDG_EQUIP_SCH_dy_3,BLDG_EQUIP_SCH_dy_3,BLDG_EQUIP_SCH_dy_3,BLDG_EQUIP_SCH_dy_3,BLDG_EQUIP_SCH_dy_4,BLDG_EQUIP_SCH_dy_4,BLDG_EQUIP_SCH_dy_3,BLDG_EQUIP_SCH_dy_4,BLDG_EQUIP_SCH_dy_4,BLDG_EQUIP_SCH_dy_4
Schedule:Week:Daily,BLDG_EQUIP_SCH_wk_3,BLDG_EQUIP_SCH_dy_6,BLDG_EQUIP_SCH_dy_5,BLDG_EQUIP_SCH_dy_5,BLDG_EQUIP_SCH_dy_5,BLDG_EQUIP_SCH_dy_5,BLDG_EQUIP_SCH_dy_5,BLDG_EQUIP_SCH_dy_6,BLDG_EQUIP_SCH_dy_6,BLDG_EQUIP_SCH_dy_5,BLDG_EQUIP_SCH_dy_6,BLDG_EQUIP_SCH_dy_6,BLDG_EQUIP_SCH_dy_6
Schedule:Week:Daily,BLDG_LIGHT_SCH_wk_1,BLDG_LIGHT_SCH_dy_2,BLDG_LIGHT_SCH_dy_1,BLDG_LIGHT_SCH_dy_1,BLDG_LIGHT_SCH_dy_1,BLDG_LIGHT_SCH_dy_1,BLDG_LIGHT_SCH_dy_1,BLDG_LIGHT_SCH_dy_2,BLDG_LIGHT_SCH_dy_2,BLDG_LIGHT_SCH_dy_1,BLDG_LIGHT_SCH_dy_2,BLDG_LIGHT_SCH_dy_2,BLDG_LIGHT_SCH_dy_2
Schedule:Week:Daily,BLDG_LIGHT_SCH_wk_2,BLDG_LIGHT_SCH_dy_4,BLDG_LIGHT_SCH_dy_3,BLDG_LIGHT_SCH_dy_3,BLDG_LIGHT_SCH_dy_3,BLDG_LIGHT_SCH_dy_3,BLDG_LIGHT_SCH_dy_3,BLDG_LIGHT_SCH_dy_4,BLDG_LIGHT_SCH_dy_4,BLDG_LIGHT_SCH_dy_3,BLDG_LIGHT_SCH_dy_4,BLDG_LIGHT_SCH_dy_4,BLDG_LIGHT_SCH_dy_4
Schedule:Week:Daily,BLDG_LIGHT_SCH_wk_3,BLDG_LIGHT_SCH_dy_6,BLDG_LIGHT_SCH_dy_5,BLDG_LIGHT_SCH_dy_5,BLDG_LIGHT_SCH_dy_5,BLDG_LIGHT_SCH_dy_5,BLDG_LIGHT_SCH_dy_5,BLDG_LIGHT_SCH_dy_6,BLDG_LIGHT_SCH_dy_6,BLDG_LIGHT_SCH_dy_5,BLDG_LIGHT_SCH_dy_6,BLDG_LIGHT_SCH_dy_6,BLDG_LIGHT_SCH_dy_6
Schedule:Week:Daily,BLDG_OCC_SCH_wk_1,BLDG_OCC_SCH_dy_2,BLDG_OCC_SCH_dy_1,BLDG_OCC_SCH_dy_1,BLDG_OCC_SCH_dy_1,BLDG_OCC_SCH_dy_1,BLDG_OCC_SCH_dy_1,BLDG_OCC_SCH_dy_2,BLDG_OCC_SCH_dy_2,BLDG_OCC_SCH_dy_1,BLDG_OCC_SCH_dy_2,BLDG_OCC_SCH_dy_2,BLDG_OCC_SCH_dy_2
Schedule:Week:Daily,BLDG_OCC_SCH_wk_2,BLDG_OCC_SCH_dy_4,BLDG_OCC_SCH_dy_3,BLDG_OCC_SCH_dy_3,BLDG_OCC_SCH_dy_3,BLDG_OCC_SCH_dy_3,BLDG_OCC_SCH_dy_3,BLDG_OCC_SCH_dy_4,BLDG_OCC_SCH_dy_4,BLDG_OCC_SCH_dy_3,BLDG_OCC_SCH_dy_4,BLDG_OCC_SCH_dy_4,BLDG_OCC_SCH_dy_4
Schedule:Week:Daily,BLDG_OCC_SCH_wk_3,BLDG_OCC_SCH_dy_6,BLDG_OCC_SCH_dy_5,BLDG_OCC_SCH_dy_5,BLDG_OCC_SCH_dy_5,BLDG_OCC_SCH_dy_5,BLDG_OCC_SCH_dy_5,BLDG_OCC_SCH_dy_6,BLDG_OCC_SCH_dy_6,BLDG_OCC_SCH_dy_5,BLDG_OCC_SCH_dy_6,BLDG_OCC_SCH_dy_6,BLDG_OCC_SCH_dy_6
Schedule:Week:Daily,BLDG_OCC_SCH_AUDITORIUM_wk_1,BLDG_OCC_SCH_AUDITORIUM_dy_2,BLDG_OCC_SCH_AUDITORIUM_dy_1,BLDG_OCC_SCH_AUDITORIUM_dy_1,BLDG_OCC_SCH_AUDITORIUM_dy_1,BLDG_OCC_SCH_AUDITORIUM_dy_1,BLDG_OCC_SCH_AUDITORIUM_dy_1,BLDG_OCC_SCH_AUDITORIUM_dy_2,BLDG_OCC_SCH_AUDITORIUM_dy_2,BLDG_OCC_SCH_AUDITORIUM_dy_1,BLDG_OCC_SCH_AUDITORIUM_dy_2,BLDG_OCC_SCH_AUDITORIUM_dy_2,BLDG_OCC_SCH_AUDITORIUM_dy_2
Schedule:Week:Daily,BLDG_OCC_SCH_AUDITORIUM_wk_2,BLDG_OCC_SCH_AUDITORIUM_dy_4,BLDG_OCC_SCH_AUDITORIUM_dy_3,BLDG_OCC_SCH_AUDITORIUM_dy_3,BLDG_OCC_SCH_AUDITORIUM_dy_3,BLDG_OCC_SCH_AUDITORIUM_dy_3,BLDG_OCC_SCH_AUDITORIUM_dy_3,BLDG_OCC_SCH_AUDITORIUM_dy_4,BLDG_OCC_SCH_AUDITORIUM_dy_4,BLDG_OCC_SCH_AUDITORIUM_dy_3,BLDG_OCC_SCH_AUDITORIUM_dy_4,BLDG_OCC_SCH_AUDITORIUM_dy_4,BLDG_OCC_SCH_AUDITORIUM_dy_4
Schedule:Week:Daily,BLDG_OCC_SCH_AUDITORIUM_wk_3,BLDG_OCC_SCH_AUDITORIUM_dy_6,BLDG_OCC_SCH_AUDITORIUM_dy_5,BLDG_OCC_SCH_AUDITORIUM_dy_5,BLDG_OCC_SCH_AUDITORIUM_dy_5,BLDG_OCC_SCH_AUDITORIUM_dy_5,BLDG_OCC_SCH_AUDITORIUM_dy_5,BLDG_OCC_SCH_AUDITORIUM_dy_6,BLDG_OCC_SCH_AUDITORIUM_dy_6,BLDG_OCC_SCH_AUDITORIUM_dy_5,BLDG_OCC_SCH_AUDITORIUM_dy_6,BLDG_OCC_SCH_AUDITORIUM_dy_6,BLDG_OCC_SCH_AUDITORIUM_dy_6
Schedule:Week:Daily,BLDG_OCC_SCH_CAFETERIA_wk_1,BLDG_OCC_SCH_CAFETERIA_dy_2,BLDG_OCC_SCH_CAFETERIA_dy_1,BLDG_OCC_SCH_CAFETERIA_dy_1,BLDG_OCC_SCH_CAFETERIA_dy_1,BLDG_OCC_SCH_CAFETERIA_dy_1,BLDG_OCC_SCH_CAFETERIA_dy_1,BLDG_OCC_SCH_CAFETERIA_dy_2,BLDG_OCC_SCH_CAFETERIA_dy_2,BLDG_OCC_SCH_CAFETERIA_dy_1,BLDG_OCC_SCH_CAFETERIA_dy_2,BLDG_OCC_SCH_CAFETERIA_dy_2,BLDG_OCC_SCH_CAFETERIA_dy_2
Schedule:Week:Daily,BLDG_OCC_SCH_CAFETERIA_wk_2,BLDG_OCC_SCH_CAFETERIA_dy_4,BLDG_OCC_SCH_CAFETERIA_dy_3,BLDG_OCC_SCH_CAFETERIA_dy_3,BLDG_OCC_SCH_CAFETERIA_dy_3,BLDG_OCC_SCH_CAFETERIA_dy_3,BLDG_OCC_SCH_CAFETERIA_dy_3,BLDG_OCC_SCH_CAFETERIA_dy_4,BLDG_OCC_SCH_CAFETERIA_dy_4,BLDG_OCC_SCH_CAFETERIA_dy_3,BLDG_OCC_SCH_CAFETERIA_dy_4,BLDG_OCC_SCH_CAFETERIA_dy_4,BLDG_OCC_SCH_CAFETERIA_dy_4
Schedule:Week:Daily,BLDG_OCC_SCH_CAFETERIA_wk_3,BLDG_OCC_SCH_CAFETERIA_dy_6,BLDG_OCC_SCH_CAFETERIA_dy_5,BLDG_OCC_SCH_CAFETERIA_dy_5,BLDG_OCC_SCH_CAFETERIA_dy_5,BLDG_OCC_SCH_CAFETERIA_dy_5,BLDG_OCC_SCH_CAFETERIA_dy_5,BLDG_OCC_SCH_CAFETERIA_dy_6,BLDG_OCC_SCH_CAFETERIA_dy_6,BLDG_OCC_SCH_CAFETERIA_dy_5,BLDG_OCC_SCH_CAFETERIA_dy_6,BLDG_OCC_SCH_CAFETERIA_dy_6,BLDG_OCC_SCH_CAFETERIA_dy_6
Schedule:Week:Daily,BLDG_OCC_SCH_EXTEND_wk_1,BLDG_OCC_SCH_EXTEND_dy_2,BLDG_OCC_SCH_EXTEND_dy_1,BLDG_OCC_SCH_EXTEND_dy_1,BLDG_OCC_SCH_EXTEND_dy_1,BLDG_OCC_SCH_EXTEND_dy_1,BLDG_OCC_SCH_EXTEND_dy_1,BLDG_OCC_SCH_EXTEND_dy_2,BLDG_OCC_SCH_EXTEND_dy_2,BLDG_OCC_SCH_EXTEND_dy_1,BLDG_OCC_SCH_EXTEND_dy_2,BLDG_OCC_SCH_EXTEND_dy_2,BLDG_OCC_SCH_EXTEND_dy_2
Schedule:Week:Daily,BLDG_OCC_SCH_EXTEND_wk_2,BLDG_OCC_SCH_EXTEND_dy_4,BLDG_OCC_SCH_EXTEND_dy_3,BLDG_OCC_SCH_EXTEND_dy_3,BLDG_OCC_SCH_EXTEND_dy_3,BLDG_OCC_SCH_EXTEND_dy_3,BLDG_OCC_SCH_EXTEND_dy_3,BLDG_OCC_SCH_EXTEND_dy_4,BLDG_OCC_SCH_EXTEND_dy_4,BLDG_OCC_SCH_EXTEND_dy_3,BLDG_OCC_SCH_EXTEND_dy_4,BLDG_OCC_SCH_EXTEND_dy_4,BLDG_OCC_SCH_EXTEND_dy_4
Schedule:Week:Daily,BLDG_OCC_SCH_EXTEND_wk_3,BLDG_OCC_SCH_EXTEND_dy_6,BLDG_OCC_SCH_EXTEND_dy_5,BLDG_OCC_SCH_EXTEND_dy_5,BLDG_OCC_SCH_EXTEND_dy_5,BLDG_OCC_SCH_EXTEND_dy_5,BLDG_OCC_SCH_EXTEND_dy_5,BLDG_OCC_SCH_EXTEND_dy_6,BLDG_OCC_SCH_EXTEND_dy_6,BLDG_OCC_SCH_EXTEND_dy_5,BLDG_OCC_SCH_EXTEND_dy_6,BLDG_OCC_SCH_EXTEND_dy_6,BLDG_OCC_SCH_EXTEND_dy_6
Schedule:Week:Daily,BLDG_OCC_SCH_GYM_wk_1,BLDG_OCC_SCH_GYM_dy_2,BLDG_OCC_SCH_GYM_dy_1,BLDG_OCC_SCH_GYM_dy_1,BLDG_OCC_SCH_GYM_dy_1,BLDG_OCC_SCH_GYM_dy_1,BLDG_OCC_SCH_GYM_dy_1,BLDG_OCC_SCH_GYM_dy_2,BLDG_OCC_SCH_GYM_dy_2,BLDG_OCC_SCH_GYM_dy_1,BLDG_OCC_SCH_GYM_dy_2,BLDG_OCC_SCH_GYM_dy_2,BLDG_OCC_SCH_GYM_dy_2
Schedule:Week:Daily,BLDG_OCC_SCH_GYM_wk_2,BLDG_OCC_SCH_GYM_dy_4,BLDG_OCC_SCH_GYM_dy_3,BLDG_OCC_SCH_GYM_dy_3,BLDG_OCC_SCH_GYM_dy_3,BLDG_OCC_SCH_GYM_dy_3,BLDG_OCC_SCH_GYM_dy_3,BLDG_OCC_SCH_GYM_dy_4,BLDG_OCC_SCH_GYM_dy_4,BLDG_OCC_SCH_GYM_dy_3,BLDG_OCC_SCH_GYM_dy_4,BLDG_OCC_SCH_GYM_dy_4,BLDG_OCC_SCH_GYM_dy_4
Schedule:Week:Daily,BLDG_OCC_SCH_GYM_wk_3,BLDG_OCC_SCH_GYM_dy_6,BLDG_OCC_SCH_GYM_dy_5,BLDG_OCC_SCH_GYM_dy_5,BLDG_OCC_SCH_GYM_dy_5,BLDG_OCC_SCH_GYM_dy_5,BLDG_OCC_SCH_GYM_dy_5,BLDG_OCC_SCH_GYM_dy_6,BLDG_OCC_SCH_GYM_dy_6,BLDG_OCC_SCH_GYM_dy_5,BLDG_OCC_SCH_GYM_dy_6,BLDG_OCC_SCH_GYM_dy_6,BLDG_OCC_SCH_GYM_dy_6
Schedule:Week:Daily,BLDG_OCC_SCH_OFFICES_wk_1,BLDG_OCC_SCH_OFFICES_dy_2,BLDG_OCC_SCH_OFFICES_dy_1,BLDG_OCC_SCH_OFFICES_dy_1,BLDG_OCC_SCH_OFFICES_dy_1,BLDG_OCC_SCH_OFFICES_dy_1,BLDG_OCC_SCH_OFFICES_dy_1,BLDG_OCC_SCH_OFFICES_dy_2,BLDG_OCC_SCH_OFFICES_dy_2,BLDG_OCC_SCH_OFFICES_dy_1,BLDG_OCC_SCH_OFFICES_dy_2,BLDG_OCC_SCH_OFFICES_dy_2,BLDG_OCC_SCH_OFFICES_dy_2
Schedule:Week:Daily,BLDG_OCC_SCH_OFFICES_wk_2,BLDG_OCC_SCH_OFFICES_dy_4,BLDG_OCC_SCH_OFFICES_dy_3,BLDG_OCC_SCH_OFFICES_dy_3,BLDG_OCC_SCH_OFFICES_dy_3,BLDG_OCC_SCH_OFFICES_dy_3,BLDG_OCC_SCH_OFFICES_dy_3,BLDG_OCC_SCH_OFFICES_dy_4,BLDG_OCC_SCH_OFFICES_dy_4,BLDG_OCC_SCH_OFFICES_dy_3,BLDG_OCC_SCH_OFFICES_dy_4,BLDG_OCC_SCH_OFFICES_dy_4,BLDG_OCC_SCH_OFFICES_dy_4
Schedule:Week:Daily,BLDG_OCC_SCH_OFFICES_wk_3,BLDG_OCC_SCH_OFFICES_dy_6,BLDG_OCC_SCH_OFFICES_dy_5,BLDG_OCC_SCH_OFFICES_dy_5,BLDG_OCC_SCH_OFFICES_dy_5,BLDG_OCC_SCH_OFFICES_dy_5,BLDG_OCC_SCH_OFFICES_dy_5,BLDG_OCC_SCH_OFFICES_dy_6,BLDG_OCC_SCH_OFFICES_dy_6,BLDG_OCC_SCH_OFFICES_dy_5,BLDG_OCC_SCH_OFFICES_dy_6,BLDG_OCC_SCH_OFFICES_dy_6,BLDG_OCC_SCH_OFFICES_dy_6
Schedule:Week:Daily,KITCHEN_ELEC_EQUIP_SCH_wk_1,KITCHEN_ELEC_EQUIP_SCH_dy_2,KITCHEN_ELEC_EQUIP_SCH_dy_1,KITCHEN_ELEC_EQUIP_SCH_dy_1,KITCHEN_ELEC_EQUIP_SCH_dy_1,KITCHEN_ELEC_EQUIP_SCH_dy_1,KITCHEN_ELEC_EQUIP_SCH_dy_1,KITCHEN_ELEC_EQUIP_SCH_dy_2,KITCHEN_ELEC_EQUIP_SCH_dy_2,KITCHEN_ELEC_EQUIP_SCH_dy_1,KITCHEN_ELEC_EQUIP_SCH_dy_2,KITCHEN_ELEC_EQUIP_SCH_dy_2,KITCHEN_ELEC_EQUIP_SCH_dy_2
Schedule:Week:Daily,KITCHEN_ELEC_EQUIP_SCH_wk_2,KITCHEN_ELEC_EQUIP_SCH_dy_4,KITCHEN_ELEC_EQUIP_SCH_dy_3,KITCHEN_ELEC_EQUIP_SCH_dy_3,KITCHEN_ELEC_EQUIP_SCH_dy_3,KITCHEN_ELEC_EQUIP_SCH_dy_3,KITCHEN_ELEC_EQUIP_SCH_dy_3,KITCHEN_ELEC_EQUIP_SCH_dy_4,KITCHEN_ELEC_EQUIP_SCH_dy_4,KITCHEN_ELEC_EQUIP_SCH_dy_3,KITCHEN_ELEC_EQUIP_SCH_dy_4,KITCHEN_ELEC_EQUIP_SCH_dy_4,KITCHEN_ELEC_EQUIP_SCH_dy_4
Schedule:Week:Daily,KITCHEN_ELEC_EQUIP_SCH_wk_3,KITCHEN_ELEC_EQUIP_SCH_dy_6,KITCHEN_ELEC_EQUIP_SCH_dy_5,KITCHEN_ELEC_EQUIP_SCH_dy_5,KITCHEN_ELEC_EQUIP_SCH_dy_5,KITCHEN_ELEC_EQUIP_SCH_dy_5,KITCHEN_ELEC_EQUIP_SCH_dy_5,KITCHEN_ELEC_EQUIP_SCH_dy_6,KITCHEN_ELEC_EQUIP_SCH_dy_6,KITCHEN_ELEC_EQUIP_SCH_dy_5,KITCHEN_ELEC_EQUIP_SCH_dy_6,KITCHEN_ELEC_EQUIP_SCH_dy_6,KITCHEN_ELEC_EQUIP_SCH_dy_6
Schedule:Week:Daily,KITCHEN_GAS_EQUIP_SCH_wk_1,KITCHEN_GAS_EQUIP_SCH_dy_2,KITCHEN_GAS_EQUIP_SCH_dy_1,KITCHEN_GAS_EQUIP_SCH_dy_1,KITCHEN_GAS_EQUIP_SCH_dy_1,KITCHEN_GAS_EQUIP_SCH_dy_1,KITCHEN_GAS_EQUIP_SCH_dy_1,KITCHEN_GAS_EQUIP_SCH_dy_2,KITCHEN_GAS_EQUIP_SCH_dy_2,KITCHEN_GAS_EQUIP_SCH_dy_1,KITCHEN_GAS_EQUIP_SCH_dy_2,KITCHEN_GAS_EQUIP_SCH_dy_2,KITCHEN_GAS_EQUIP_SCH_dy_2
Schedule:Week:Daily,KITCHEN_GAS_EQUIP_SCH_wk_2,KITCHEN_GAS_EQUIP_SCH_dy_4,KITCHEN_GAS_EQUIP_SCH_dy_3,KITCHEN_GAS_EQUIP_SCH_dy_3,KITCHEN_GAS_EQUIP_SCH_dy_3,KITCHEN_GAS_EQUIP_SCH_dy_3,KITCHEN_GAS_EQUIP_SCH_dy_3,KITCHEN_GAS_EQUIP_SCH_dy_4,KITCHEN_GAS_EQUIP_SCH_dy_4,KITCHEN_GAS_EQUIP_SCH_dy_3,KITCHEN_GAS_EQUIP_SCH_dy_4,KITCHEN_GAS_EQUIP_SCH_dy_4,KITCHEN_GAS_EQUIP_SCH_dy_4
Schedule:Week:Daily,KITCHEN_GAS_EQUIP_SCH_wk_3,KITCHEN_GAS_EQUIP_SCH_dy_6,KITCHEN_GAS_EQUIP_SCH_dy_5,KITCHEN_GAS_EQUIP_SCH_dy_5,KITCHEN_GAS_EQUIP_SCH_dy_5,KITCHEN_GAS_EQUIP_SCH_dy_5,KITCHEN_GAS_EQUIP_SCH_dy_5,KITCHEN_GAS_EQUIP_SCH_dy_6,KITCHEN_GAS_EQUIP_SCH_dy_6,KITCHEN_GAS_EQUIP_SCH_dy_5,KITCHEN_GAS_EQUIP_SCH_dy_6,KITCHEN_GAS_EQUIP_SCH_dy_6,KITCHEN_GAS_EQUIP_SCH_dy_6
Schedule:Week:Daily,INFIL_SCH_wk_1,INFIL_SCH_dy_1,INFIL_SCH_dy_1,INFIL_SCH_dy_1,INFIL_SCH_dy_1,INFIL_SCH_dy_1,INFIL_SCH_dy_1,INFIL_SCH_dy_1,INFIL_SCH_dy_1,INFIL_SCH_dy_1,INFIL_SCH_dy_1,INFIL_SCH_dy_1,INFIL_SCH_dy_1
Schedule:Week:Daily,ACTIVITY_SCH_wk_1,ACTIVITY_SCH_dy_1,ACTIVITY_SCH_dy_1,ACTIVITY_SCH_dy_1,ACTIVITY_SCH_dy_1,ACTIVITY_SCH_dy_1,ACTIVITY_SCH_dy_1,ACTIVITY_SCH_dy_1,ACTIVITY_SCH_dy_1,ACTIVITY_SCH_dy_1,ACTIVITY_SCH_dy_1,ACTIVITY_SCH_dy_1,ACTIVITY_SCH_dy_1
Schedule:Week:Daily,AIR_VELO_SCH_wk_1,AIR_VELO_SCH_dy_1,AIR_VELO_SCH_dy_1,AIR_VELO_SCH_dy_1,AIR_VELO_SCH_dy_1,AIR_VELO_SCH_dy_1,AIR_VELO_SCH_dy_1,AIR_VELO_SCH_dy_1,AIR_VELO_SCH_dy_1,AIR_VELO_SCH_dy_1,AIR_VELO_SCH_dy_1,AIR_VELO_SCH_dy_1,AIR_VELO_SCH_dy_1
Schedule:Week:Daily,CLOTHING_SCH_wk_1,CLOTHING_SCH_dy_1,CLOTHING_SCH_dy_1,CLOTHING_SCH_dy_1,CLOTHING_SCH_dy_1,CLOTHING_SCH_dy_1,CLOTHING_SCH_dy_1,CLOTHING_SCH_dy_1,CLOTHING_SCH_dy_1,CLOTHING_SCH_dy_1,CLOTHING_SCH_dy_1,CLOTHING_SCH_dy_1,CLOTHING_SCH_dy_1
Schedule:Week:Daily,CLOTHING_SCH_wk_2,CLOTHING_SCH_dy_2,CLOTHING_SCH_dy_2,CLOTHING_SCH_dy_2,CLOTHING_SCH_dy_2,CLOTHING_SCH_dy_2,CLOTHING_SCH_dy_2,CLOTHING_SCH_dy_2,CLOTHING_SCH_dy_2,CLOTHING_SCH_dy_2,CLOTHING_SCH_dy_2,CLOTHING_SCH_dy_2,CLOTHING_SCH_dy_2
Schedule:Week:Daily,CLOTHING_SCH_wk_3,CLOTHING_SCH_dy_3,CLOTHING_SCH_dy_3,CLOTHING_SCH_dy_3,CLOTHING_SCH_dy_3,CLOTHING_SCH_dy_3,CLOTHING_SCH_dy_3,CLOTHING_SCH_dy_3,CLOTHING_SCH_dy_3,CLOTHING_SCH_dy_3,CLOTHING_SCH_dy_3,CLOTHING_SCH_dy_3,CLOTHING_SCH_dy_3
Schedule:Week:Daily,WORK_EFF_SCH_wk_1,WORK_EFF_SCH_dy_1,WORK_EFF_SCH_dy_1,WORK_EFF_SCH_dy_1,WORK_EFF_SCH_dy_1,WORK_EFF_SCH_dy_1,WORK_EFF_SCH_dy_1,WORK_EFF_SCH_dy_1,WORK_EFF_SCH_dy_1,WORK_EFF_SCH_dy_1,WORK_EFF_SCH_dy_1,WORK_EFF_SCH_dy_1,WORK_EFF_SCH_dy_1
Schedule:Week:Daily,CLGSETP_SCH_wk_1,CLGSETP_SCH_dy_2,CLGSETP_SCH_dy_3,CLGSETP_SCH_dy_3,CLGSETP_SCH_dy_3,CLGSETP_SCH_dy_3,CLGSETP_SCH_dy_3,CLGSETP_SCH_dy_2,CLGSETP_SCH_dy_2,CLGSETP_SCH_dy_1,CLGSETP_SCH_dy_2,CLGSETP_SCH_dy_3,CLGSETP_SCH_dy_3
Schedule:Week:Daily,CLGSETP_SCH_wk_2,CLGSETP_SCH_dy_5,CLGSETP_SCH_dy_6,CLGSETP_SCH_dy_6,CLGSETP_SCH_dy_6,CLGSETP_SCH_dy_6,CLGSETP_SCH_dy_6,CLGSETP_SCH_dy_5,CLGSETP_SCH_dy_5,CLGSETP_SCH_dy_4,CLGSETP_SCH_dy_5,CLGSETP_SCH_dy_6,CLGSETP_SCH_dy_6
Schedule:Week:Daily,CLGSETP_SCH_wk_3,CLGSETP_SCH_dy_8,CLGSETP_SCH_dy_9,CLGSETP_SCH_dy_9,CLGSETP_SCH_dy_9,CLGSETP_SCH_dy_9,CLGSETP_SCH_dy_9,CLGSETP_SCH_dy_8,CLGSETP_SCH_dy_8,CLGSETP_SCH_dy_7,CLGSETP_SCH_dy_8,CLGSETP_SCH_dy_9,CLGSETP_SCH_dy_9
Schedule:Week:Daily,CLGSETP_SCH_BATHCORRMECHKITCHEN_wk_1,CLGSETP_SCH_BATHCORRMECHKITCHEN_dy_2,CLGSETP_SCH_BATHCORRMECHKITCHEN_dy_2,CLGSETP_SCH_BATHCORRMECHKITCHEN_dy_2,CLGSETP_SCH_BATHCORRMECHKITCHEN_dy_2,CLGSETP_SCH_BATHCORRMECHKITCHEN_dy_2,CLGSETP_SCH_BATHCORRMECHKITCHEN_dy_2,CLGSETP_SCH_BATHCORRMECHKITCHEN_dy_2,CLGSETP_SCH_BATHCORRMECHKITCHEN_dy_2,CLGSETP_SCH_BATHCORRMECHKITCHEN_dy_1,CLGSETP_SCH_BATHCORRMECHKITCHEN_dy_2,CLGSETP_SCH_BATHCORRMECHKITCHEN_dy_2,CLGSETP_SCH_BATHCORRMECHKITCHEN_dy_2
Schedule:Week:Daily,HTGSETP_SCH_wk_1,HTGSETP_SCH_dy_2,HTGSETP_SCH_dy_3,HTGSETP_SCH_dy_3,HTGSETP_SCH_dy_3,HTGSETP_SCH_dy_3,HTGSETP_SCH_dy_3,HTGSETP_SCH_dy_2,HTGSETP_SCH_dy_2,HTGSETP_SCH_dy_2,HTGSETP_SCH_dy_1,HTGSETP_SCH_dy_3,HTGSETP_SCH_dy_3
Schedule:Week:Daily,HTGSETP_SCH_wk_2,HTGSETP_SCH_dy_5,HTGSETP_SCH_dy_6,HTGSETP_SCH_dy_6,HTGSETP_SCH_dy_6,HTGSETP_SCH_dy_6,HTGSETP_SCH_dy_6,HTGSETP_SCH_dy_5,HTGSETP_SCH_dy_5,HTGSETP_SCH_dy_5,HTGSETP_SCH_dy_4,HTGSETP_SCH_dy_6,HTGSETP_SCH_dy_6
Schedule:Week:Daily,HTGSETP_SCH_wk_3,HTGSETP_SCH_dy_8,HTGSETP_SCH_dy_9,HTGSETP_SCH_dy_9,HTGSETP_SCH_dy_9,HTGSETP_SCH_dy_9,HTGSETP_SCH_dy_9,HTGSETP_SCH_dy_8,HTGSETP_SCH_dy_8,HTGSETP_SCH_dy_8,HTGSETP_SCH_dy_7,HTGSETP_SCH_dy_9,HTGSETP_SCH_dy_9
Schedule:Week:Daily,HTGSETP_SCH_BATHCORRMECHKITCHEN_wk_1,HTGSETP_SCH_BATHCORRMECHKITCHEN_dy_2,HTGSETP_SCH_BATHCORRMECHKITCHEN_dy_2,HTGSETP_SCH_BATHCORRMECHKITCHEN_dy_2,HTGSETP_SCH_BATHCORRMECHKITCHEN_dy_2,HTGSETP_SCH_BATHCORRMECHKITCHEN_dy_2,HTGSETP_SCH_BATHCORRMECHKITCHEN_dy_2,HTGSETP_SCH_BATHCORRMECHKITCHEN_dy_2,HTGSETP_SCH_BATHCORRMECHKITCHEN_dy_2,HTGSETP_SCH_BATHCORRMECHKITCHEN_dy_2,HTGSETP_SCH_BATHCORRMECHKITCHEN_dy_1,HTGSETP_SCH_BATHCORRMECHKITCHEN_dy_2,HTGSETP_SCH_BATHCORRMECHKITCHEN_dy_2
Schedule:Week:Daily,HVACOPERATIONSCHD_wk_1,HVACOPERATIONSCHD_dy_2,HVACOPERATIONSCHD_dy_1,HVACOPERATIONSCHD_dy_1,HVACOPERATIONSCHD_dy_1,HVACOPERATIONSCHD_dy_1,HVACOPERATIONSCHD_dy_1,HVACOPERATIONSCHD_dy_2,HVACOPERATIONSCHD_dy_2,HVACOPERATIONSCHD_dy_1,HVACOPERATIONSCHD_dy_2,HVACOPERATIONSCHD_dy_2,HVACOPERATIONSCHD_dy_2
Schedule:Week:Daily,MINOA_SCHED_wk_1,MINOA_SCHED_dy_2,MINOA_SCHED_dy_1,MINOA_SCHED_dy_1,MINOA_SCHED_dy_1,MINOA_SCHED_dy_1,MINOA_SCHED_dy_1,MINOA_SCHED_dy_2,MINOA_SCHED_dy_2,MINOA_SCHED_dy_1,MINOA_SCHED_dy_2,MINOA_SCHED_dy_2,MINOA_SCHED_dy_2
Schedule:Week:Daily,DUAL ZONE CONTROL TYPE SCHED_wk_1,DUAL ZONE CONTROL TYPE SCHED_dy_1,DUAL ZONE CONTROL TYPE SCHED_dy_1,DUAL ZONE CONTROL TYPE SCHED_dy_1,DUAL ZONE CONTROL TYPE SCHED_dy_1,DUAL ZONE CONTROL TYPE SCHED_dy_1,DUAL ZONE CONTROL TYPE SCHED_dy_1,DUAL ZONE CONTROL TYPE SCHED_dy_1,DUAL ZONE CONTROL TYPE SCHED_dy_1,DUAL ZONE CONTROL TYPE SCHED_dy_1,DUAL ZONE CONTROL TYPE SCHED_dy_1,DUAL ZONE CONTROL TYPE SCHED_dy_1,DUAL ZONE CONTROL TYPE SCHED_dy_1
Schedule:Week:Daily,HW-LOOP-TEMP-SCHEDULE_wk_1,HW-LOOP-TEMP-SCHEDULE_dy_1,HW-LOOP-TEMP-SCHEDULE_dy_1,HW-LOOP-TEMP-SCHEDULE_dy_1,HW-LOOP-TEMP-SCHEDULE_dy_1,HW-LOOP-TEMP-SCHEDULE_dy_1,HW-LOOP-TEMP-SCHEDULE_dy_1,HW-LOOP-TEMP-SCHEDULE_dy_1,HW-LOOP-TEMP-SCHEDULE_dy_1,HW-LOOP-TEMP-SCHEDULE_dy_1,HW-LOOP-TEMP-SCHEDULE_dy_1,HW-LOOP-TEMP-SCHEDULE_dy_1,HW-LOOP-TEMP-SCHEDULE_dy_1
Schedule:Week:Daily,PLANTONSCHED_wk_1,PLANTONSCHED_dy_1,PLANTONSCHED_dy_1,PLANTONSCHED_dy_1,PLANTONSCHED_dy_1,PLANTONSCHED_dy_1,PLANTONSCHED_dy_1,PLANTONSCHED_dy_1,PLANTONSCHED_dy_1,PLANTONSCHED_dy_1,PLANTONSCHED_dy_1,PLANTONSCHED_dy_1,PLANTONSCHED_dy_1
Schedule:Week:Daily,KITCHEN_ZN_1_FLR_1_CASE:1_WALKINFREEZER_CASECREDITREDUXSCHED_wk_1,KITCHEN_ZN_1_FLR_1_CASE:1_WALKINFREEZER_CASECREDITREDUXSCHED_dy_1,KITCHEN_ZN_1_FLR_1_CASE:1_WALKINFREEZER_CASECREDITREDUXSCHED_dy_1,KITCHEN_ZN_1_FLR_1_CASE:1_WALKINFREEZER_CASECREDITREDUXSCHED_dy_1,KITCHEN_ZN_1_FLR_1_CASE:1_WALKINFREEZER_CASECREDITREDUXSCHED_dy_1,KITCHEN_ZN_1_FLR_1_CASE:1_WALKINFREEZER_CASECREDITREDUXSCHED_dy_1,KITCHEN_ZN_1_FLR_1_CASE:1_WALKINFREEZER_CASECREDITREDUXSCHED_dy_1,KITCHEN_ZN_1_FLR_1_CASE:1_WALKINFREEZER_CASECREDITREDUXSCHED_dy_1,KITCHEN_ZN_1_FLR_1_CASE:1_WALKINFREEZER_CASECREDITREDUXSCHED_dy_1,KITCHEN_ZN_1_FLR_1_CASE:1_WALKINFREEZER_CASECREDITREDUXSCHED_dy_1,KITCHEN_ZN_1_FLR_1_CASE:1_WALKINFREEZER_CASECREDITREDUXSCHED_dy_1,KITCHEN_ZN_1_FLR_1_CASE:1_WALKINFREEZER_CASECREDITREDUXSCHED_dy_1,KITCHEN_ZN_1_FLR_1_CASE:1_WALKINFREEZER_CASECREDITREDUXSCHED_dy_1
Schedule:Week:Daily,KITCHEN_ZN_1_FLR_1_CASE:1_WALKINFREEZER_CASEDEFROST2ADAYSCHED_wk_1,KITCHEN_ZN_1_FLR_1_CASE:1_WALKINFREEZER_CASEDEFROST2ADAYSCHED_dy_1,KITCHEN_ZN_1_FLR_1_CASE:1_WALKINFREEZER_CASEDEFROST2ADAYSCHED_dy_1,KITCHEN_ZN_1_FLR_1_CASE:1_WALKINFREEZER_CASEDEFROST2ADAYSCHED_dy_1,KITCHEN_ZN_1_FLR_1_CASE:1_WALKINFREEZER_CASEDEFROST2ADAYSCHED_dy_1,KITCHEN_ZN_1_FLR_1_CASE:1_WALKINFREEZER_CASEDEFROST2ADAYSCHED_dy_1,KITCHEN_ZN_1_FLR_1_CASE:1_WALKINFREEZER_CASEDEFROST2ADAYSCHED_dy_1,KITCHEN_ZN_1_FLR_1_CASE:1_WALKINFREEZER_CASEDEFROST2ADAYSCHED_dy_1,KITCHEN_ZN_1_FLR_1_CASE:1_WALKINFREEZER_CASEDEFROST2ADAYSCHED_dy_1,KITCHEN_ZN_1_FLR_1_CASE:1_WALKINFREEZER_CASEDEFROST2ADAYSCHED_dy_1,KITCHEN_ZN_1_FLR_1_CASE:1_WALKINFREEZER_CASEDEFROST2ADAYSCHED_dy_1,KITCHEN_ZN_1_FLR_1_CASE:1_WALKINFREEZER_CASEDEFROST2ADAYSCHED_dy_1,KITCHEN_ZN_1_FLR_1_CASE:1_WALKINFREEZER_CASEDEFROST2ADAYSCHED_dy_1
Schedule:Week:Daily,KITCHEN_ZN_1_FLR_1_CASE:1_WALKINFREEZER_CASEDRIPDOWN2ADAYSCHED_wk_1,KITCHEN_ZN_1_FLR_1_CASE:1_WALKINFREEZER_CASEDRIPDOWN2ADAYSCHED_dy_1,KITCHEN_ZN_1_FLR_1_CASE:1_WALKINFREEZER_CASEDRIPDOWN2ADAYSCHED_dy_1,KITCHEN_ZN_1_FLR_1_CASE:1_WALKINFREEZER_CASEDRIPDOWN2ADAYSCHED_dy_1,KITCHEN_ZN_1_FLR_1_CASE:1_WALKINFREEZER_CASEDRIPDOWN2ADAYSCHED_dy_1,KITCHEN_ZN_1_FLR_1_CASE:1_WALKINFREEZER_CASEDRIPDOWN2ADAYSCHED_dy_1,KITCHEN_ZN_1_FLR_1_CASE:1_WALKINFREEZER_CASEDRIPDOWN2ADAYSCHED_dy_1,KITCHEN_ZN_1_FLR_1_CASE:1_WALKINFREEZER_CASEDRIPDOWN2ADAYSCHED_dy_1,KITCHEN_ZN_1_FLR_1_CASE:1_WALKINFREEZER_CASEDRIPDOWN2ADAYSCHED_dy_1,KITCHEN_ZN_1_FLR_1_CASE:1_WALKINFREEZER_CASEDRIPDOWN2ADAYSCHED_dy_1,KITCHEN_ZN_1_FLR_1_CASE:1_WALKINFREEZER_CASEDRIPDOWN2ADAYSCHED_dy_1,KITCHEN_ZN_1_FLR_1_CASE:1_WALKINFREEZER_CASEDRIPDOWN2ADAYSCHED_dy_1,KITCHEN_ZN_1_FLR_1_CASE:1_WALKINFREEZER_CASEDRIPDOWN2ADAYSCHED_dy_1
Schedule:Week:Daily,KITCHEN_ZN_1_FLR_1_CASE:1_WALKINFREEZER_WALKINSTOCKINGSCHED_wk_1,KITCHEN_ZN_1_FLR_1_CASE:1_WALKINFREEZER_WALKINSTOCKINGSCHED_dy_2,KITCHEN_ZN_1_FLR_1_CASE:1_WALKINFREEZER_WALKINSTOCKINGSCHED_dy_2,KITCHEN_ZN_1_FLR_1_CASE:1_WALKINFREEZER_WALKINSTOCKINGSCHED_dy_1,KITCHEN_ZN_1_FLR_1_CASE:1_WALKINFREEZER_WALKINSTOCKINGSCHED_dy_2,KITCHEN_ZN_1_FLR_1_CASE:1_WALKINFREEZER_WALKINSTOCKINGSCHED_dy_2,KITCHEN_ZN_1_FLR_1_CASE:1_WALKINFREEZER_WALKINSTOCKINGSCHED_dy_1,KITCHEN_ZN_1_FLR_1_CASE:1_WALKINFREEZER_WALKINSTOCKINGSCHED_dy_2,KITCHEN_ZN_1_FLR_1_CASE:1_WALKINFREEZER_WALKINSTOCKINGSCHED_dy_2,KITCHEN_ZN_1_FLR_1_CASE:1_WALKINFREEZER_WALKINSTOCKINGSCHED_dy_2,KITCHEN_ZN_1_FLR_1_CASE:1_WALKINFREEZER_WALKINSTOCKINGSCHED_dy_2,KITCHEN_ZN_1_FLR_1_CASE:1_WALKINFREEZER_WALKINSTOCKINGSCHED_dy_2,KITCHEN_ZN_1_FLR_1_CASE:1_WALKINFREEZER_WALKINSTOCKINGSCHED_dy_2
Schedule:Week:Daily,KITCHEN_ZN_1_FLR_1_CASE:2_SELFCONTAINEDDISPLAYCASE_CASESTOCKINGSCHED_wk_1,KITCHEN_ZN_1_FLR_1_CASE:2_SELFCONTAINEDDISPLAYCASE_CASESTOCKINGSCHED_dy_1,KITCHEN_ZN_1_FLR_1_CASE:2_SELFCONTAINEDDISPLAYCASE_CASESTOCKINGSCHED_dy_1,KITCHEN_ZN_1_FLR_1_CASE:2_SELFCONTAINEDDISPLAYCASE_CASESTOCKINGSCHED_dy_1,KITCHEN_ZN_1_FLR_1_CASE:2_SELFCONTAINEDDISPLAYCASE_CASESTOCKINGSCHED_dy_1,KITCHEN_ZN_1_FLR_1_CASE:2_SELFCONTAINEDDISPLAYCASE_CASESTOCKINGSCHED_dy_1,KITCHEN_ZN_1_FLR_1_CASE:2_SELFCONTAINEDDISPLAYCASE_CASESTOCKINGSCHED_dy_1,KITCHEN_ZN_1_FLR_1_CASE:2_SELFCONTAINEDDISPLAYCASE_CASESTOCKINGSCHED_dy_1,KITCHEN_ZN_1_FLR_1_CASE:2_SELFCONTAINEDDISPLAYCASE_CASESTOCKINGSCHED_dy_1,KITCHEN_ZN_1_FLR_1_CASE:2_SELFCONTAINEDDISPLAYCASE_CASESTOCKINGSCHED_dy_1,KITCHEN_ZN_1_FLR_1_CASE:2_SELFCONTAINEDDISPLAYCASE_CASESTOCKINGSCHED_dy_1,KITCHEN_ZN_1_FLR_1_CASE:2_SELFCONTAINEDDISPLAYCASE_CASESTOCKINGSCHED_dy_1,KITCHEN_ZN_1_FLR_1_CASE:2_SELFCONTAINEDDISPLAYCASE_CASESTOCKINGSCHED_dy_1
Schedule:Week:Daily,BLDG_SWH_SCH_wk_1,BLDG_SWH_SCH_dy_3,BLDG_SWH_SCH_dy_1,BLDG_SWH_SCH_dy_1,BLDG_SWH_SCH_dy_1,BLDG_SWH_SCH_dy_1,BLDG_SWH_SCH_dy_1,BLDG_SWH_SCH_dy_2,BLDG_SWH_SCH_dy_3,BLDG_SWH_SCH_dy_1,BLDG_SWH_SCH_dy_2,BLDG_SWH_SCH_dy_3,BLDG_SWH_SCH_dy_3
Schedule:Week:Daily,BLDG_SWH_SCH_wk_2,BLDG_SWH_SCH_dy_6,BLDG_SWH_SCH_dy_4,BLDG_SWH_SCH_dy_4,BLDG_SWH_SCH_dy_4,BLDG_SWH_SCH_dy_4,BLDG_SWH_SCH_dy_4,BLDG_SWH_SCH_dy_5,BLDG_SWH_SCH_dy_6,BLDG_SWH_SCH_dy_4,BLDG_SWH_SCH_dy_5,BLDG_SWH_SCH_dy_6,BLDG_SWH_SCH_dy_6
Schedule:Week:Daily,BLDG_SWH_SCH_wk_3,BLDG_SWH_SCH_dy_9,BLDG_SWH_SCH_dy_7,BLDG_SWH_SCH_dy_7,BLDG_SWH_SCH_dy_7,BLDG_SWH_SCH_dy_7,BLDG_SWH_SCH_dy_7,BLDG_SWH_SCH_dy_8,BLDG_SWH_SCH_dy_9,BLDG_SWH_SCH_dy_7,BLDG_SWH_SCH_dy_8,BLDG_SWH_SCH_dy_9,BLDG_SWH_SCH_dy_9
Schedule:Week:Daily,SHOWERS_SWH_SCH_wk_1,SHOWERS_SWH_SCH_dy_2,SHOWERS_SWH_SCH_dy_1,SHOWERS_SWH_SCH_dy_1,SHOWERS_SWH_SCH_dy_1,SHOWERS_SWH_SCH_dy_1,SHOWERS_SWH_SCH_dy_1,SHOWERS_SWH_SCH_dy_2,SHOWERS_SWH_SCH_dy_3,SHOWERS_SWH_SCH_dy_1,SHOWERS_SWH_SCH_dy_3,SHOWERS_SWH_SCH_dy_3,SHOWERS_SWH_SCH_dy_3
Schedule:Week:Daily,SHOWERS_SWH_SCH_wk_2,SHOWERS_SWH_SCH_dy_5,SHOWERS_SWH_SCH_dy_4,SHOWERS_SWH_SCH_dy_4,SHOWERS_SWH_SCH_dy_4,SHOWERS_SWH_SCH_dy_4,SHOWERS_SWH_SCH_dy_4,SHOWERS_SWH_SCH_dy_5,SHOWERS_SWH_SCH_dy_5,SHOWERS_SWH_SCH_dy_4,SHOWERS_SWH_SCH_dy_5,SHOWERS_SWH_SCH_dy_5,SHOWERS_SWH_SCH_dy_5
Schedule:Week:Daily,SHOWERS_SWH_SCH_wk_3,SHOWERS_SWH_SCH_dy_7,SHOWERS_SWH_SCH_dy_6,SHOWERS_SWH_SCH_dy_6,SHOWERS_SWH_SCH_dy_6,SHOWERS_SWH_SCH_dy_6,SHOWERS_SWH_SCH_dy_6,SHOWERS_SWH_SCH_dy_7,SHOWERS_SWH_SCH_dy_8,SHOWERS_SWH_SCH_dy_6,SHOWERS_SWH_SCH_dy_8,SHOWERS_SWH_SCH_dy_8,SHOWERS_SWH_SCH_dy_8
Schedule:Week:Daily,LATENT FRACT SCHED_wk_1,LATENT FRACT SCHED_dy_1,LATENT FRACT SCHED_dy_1,LATENT FRACT SCHED_dy_1,LATENT FRACT SCHED_dy_1,LATENT FRACT SCHED_dy_1,LATENT FRACT SCHED_dy_1,LATENT FRACT SCHED_dy_1,LATENT FRACT SCHED_dy_1,LATENT FRACT SCHED_dy_1,LATENT FRACT SCHED_dy_1,LATENT FRACT SCHED_dy_1,LATENT FRACT SCHED_dy_1
Schedule:Week:Daily,SENSIBLE FRACT SCHED_wk_1,SENSIBLE FRACT SCHED_dy_1,SENSIBLE FRACT SCHED_dy_1,SENSIBLE FRACT SCHED_dy_1,SENSIBLE FRACT SCHED_dy_1,SENSIBLE FRACT SCHED_dy_1,SENSIBLE FRACT SCHED_dy_1,SENSIBLE FRACT SCHED_dy_1,SENSIBLE FRACT SCHED_dy_1,SENSIBLE FRACT SCHED_dy_1,SENSIBLE FRACT SCHED_dy_1,SENSIBLE FRACT SCHED_dy_1,SENSIBLE FRACT SCHED_dy_1
Schedule:Week:Daily,HOT SUPPLY TEMP SCHED_wk_1,HOT SUPPLY TEMP SCHED_dy_1,HOT SUPPLY TEMP SCHED_dy_1,HOT SUPPLY TEMP SCHED_dy_1,HOT SUPPLY TEMP SCHED_dy_1,HOT SUPPLY TEMP SCHED_dy_1,HOT SUPPLY TEMP SCHED_dy_1,HOT SUPPLY TEMP SCHED_dy_1,HOT SUPPLY TEMP SCHED_dy_1,HOT SUPPLY TEMP SCHED_dy_1,HOT SUPPLY TEMP SCHED_dy_1,HOT SUPPLY TEMP SCHED_dy_1,HOT SUPPLY TEMP SCHED_dy_1
Schedule:Week:Daily,SHW_DEFAULT TEMP SCHED_wk_1,SHW_DEFAULT TEMP SCHED_dy_1,SHW_DEFAULT TEMP SCHED_dy_1,SHW_DEFAULT TEMP SCHED_dy_1,SHW_DEFAULT TEMP SCHED_dy_1,SHW_DEFAULT TEMP SCHED_dy_1,SHW_DEFAULT TEMP SCHED_dy_1,SHW_DEFAULT TEMP SCHED_dy_1,SHW_DEFAULT TEMP SCHED_dy_1,SHW_DEFAULT TEMP SCHED_dy_1,SHW_DEFAULT TEMP SCHED_dy_1,SHW_DEFAULT TEMP SCHED_dy_1,SHW_DEFAULT TEMP SCHED_dy_1
Schedule:Week:Daily,KITCHEN HOT SUPPLY TEMP SCHED_wk_1,KITCHEN HOT SUPPLY TEMP SCHED_dy_1,KITCHEN HOT SUPPLY TEMP SCHED_dy_1,KITCHEN HOT SUPPLY TEMP SCHED_dy_1,KITCHEN HOT SUPPLY TEMP SCHED_dy_1,KITCHEN HOT SUPPLY TEMP SCHED_dy_1,KITCHEN HOT SUPPLY TEMP SCHED_dy_1,KITCHEN HOT SUPPLY TEMP SCHED_dy_1,KITCHEN HOT SUPPLY TEMP SCHED_dy_1,KITCHEN HOT SUPPLY TEMP SCHED_dy_1,KITCHEN HOT SUPPLY TEMP SCHED_dy_1,KITCHEN HOT SUPPLY TEMP SCHED_dy_1,KITCHEN HOT SUPPLY TEMP SCHED_dy_1
Schedule:Week:Daily,SHW_KITCHEN TEMP SCHED_wk_1,SHW_KITCHEN TEMP SCHED_dy_1,SHW_KITCHEN TEMP SCHED_dy_1,SHW_KITCHEN TEMP SCHED_dy_1,SHW_KITCHEN TEMP SCHED_dy_1,SHW_KITCHEN TEMP SCHED_dy_1,SHW_KITCHEN TEMP SCHED_dy_1,SHW_KITCHEN TEMP SCHED_dy_1,SHW_KITCHEN TEMP SCHED_dy_1,SHW_KITCHEN TEMP SCHED_dy_1,SHW_KITCHEN TEMP SCHED_dy_1,SHW_KITCHEN TEMP SCHED_dy_1,SHW_KITCHEN TEMP SCHED_dy_1
Schedule:Week:Daily,SWHSYS1 WATER HEATER AMBIENT TEMPERATURE SCHEDULE NAME_wk_1,SWHSYS1 WATER HEATER AMBIENT TEMPERATURE SCHEDULE NAME_dy_1,SWHSYS1 WATER HEATER AMBIENT TEMPERATURE SCHEDULE NAME_dy_1,SWHSYS1 WATER HEATER AMBIENT TEMPERATURE SCHEDULE NAME_dy_1,SWHSYS1 WATER HEATER AMBIENT TEMPERATURE SCHEDULE NAME_dy_1,SWHSYS1 WATER HEATER AMBIENT TEMPERATURE SCHEDULE NAME_dy_1,SWHSYS1 WATER HEATER AMBIENT TEMPERATURE SCHEDULE NAME_dy_1,SWHSYS1 WATER HEATER AMBIENT TEMPERATURE SCHEDULE NAME_dy_1,SWHSYS1 WATER HEATER AMBIENT TEMPERATURE SCHEDULE NAME_dy_1,SWHSYS1 WATER HEATER AMBIENT TEMPERATURE SCHEDULE NAME_dy_1,SWHSYS1 WATER HEATER AMBIENT TEMPERATURE SCHEDULE NAME_dy_1,SWHSYS1 WATER HEATER AMBIENT TEMPERATURE SCHEDULE NAME_dy_1,SWHSYS1 WATER HEATER AMBIENT TEMPERATURE SCHEDULE NAME_dy_1
Schedule:Week:Daily,SWHSYS1 WATER HEATER SETPOINT TEMPERATURE SCHEDULE NAME_wk_1,SWHSYS1 WATER HEATER SETPOINT TEMPERATURE SCHEDULE NAME_dy_1,SWHSYS1 WATER HEATER SETPOINT TEMPERATURE SCHEDULE NAME_dy_1,SWHSYS1 WATER HEATER SETPOINT TEMPERATURE SCHEDULE NAME_dy_1,SWHSYS1 WATER HEATER SETPOINT TEMPERATURE SCHEDULE NAME_dy_1,SWHSYS1 WATER HEATER SETPOINT TEMPERATURE SCHEDULE NAME_dy_1,SWHSYS1 WATER HEATER SETPOINT TEMPERATURE SCHEDULE NAME_dy_1,SWHSYS1 WATER HEATER SETPOINT TEMPERATURE SCHEDULE NAME_dy_1,SWHSYS1 WATER HEATER SETPOINT TEMPERATURE SCHEDULE NAME_dy_1,SWHSYS1 WATER HEATER SETPOINT TEMPERATURE SCHEDULE NAME_dy_1,SWHSYS1 WATER HEATER SETPOINT TEMPERATURE SCHEDULE NAME_dy_1,SWHSYS1 WATER HEATER SETPOINT TEMPERATURE SCHEDULE NAME_dy_1,SWHSYS1 WATER HEATER SETPOINT TEMPERATURE SCHEDULE NAME_dy_1
Schedule:Week:Daily,SWHSYS1-LOOP-TEMP-SCHEDULE_wk_1,SWHSYS1-LOOP-TEMP-SCHEDULE_dy_1,SWHSYS1-LOOP-TEMP-SCHEDULE_dy_1,SWHSYS1-LOOP-TEMP-SCHEDULE_dy_1,SWHSYS1-LOOP-TEMP-SCHEDULE_dy_1,SWHSYS1-LOOP-TEMP-SCHEDULE_dy_1,SWHSYS1-LOOP-TEMP-SCHEDULE_dy_1,SWHSYS1-LOOP-TEMP-SCHEDULE_dy_1,SWHSYS1-LOOP-TEMP-SCHEDULE_dy_1,SWHSYS1-LOOP-TEMP-SCHEDULE_dy_1,SWHSYS1-LOOP-TEMP-SCHEDULE_dy_1,SWHSYS1-LOOP-TEMP-SCHEDULE_dy_1,SWHSYS1-LOOP-TEMP-SCHEDULE_dy_1
Schedule,ALWAYS_ON,ON/OFF,Through Dec 31,ALWAYS_ON_wk_1
Schedule,KITCHEN_EXHAUST_SCH,FRACTION,Through Dec 31,KITCHEN_EXHAUST_SCH_wk_1
Schedule,BLDG_ELEVATORS,FRACTION,Through Dec 31,BLDG_ELEVATORS_wk_1
Schedule,BLDG_EQUIP_SCH,FRACTION,Through Jun 30,BLDG_EQUIP_SCH_wk_1,Through Sep 01,BLDG_EQUIP_SCH_wk_2,Through Dec 31,BLDG_EQUIP_SCH_wk_3
Schedule,BLDG_LIGHT_SCH,FRACTION,Through Jun 30,BLDG_LIGHT_SCH_wk_1,Through Sep 01,BLDG_LIGHT_SCH_wk_2,Through Dec 31,BLDG_LIGHT_SCH_wk_3
Schedule,BLDG_OCC_SCH,FRACTION,Through Jun 30,BLDG_OCC_SCH_wk_1,Through Sep 01,BLDG_OCC_SCH_wk_2,Through Dec 31,BLDG_OCC_SCH_wk_3
Schedule,BLDG_OCC_SCH_AUDITORIUM,FRACTION,Through Jun 30,BLDG_OCC_SCH_AUDITORIUM_wk_1,Through Sep 01,BLDG_OCC_SCH_AUDITORIUM_wk_2,Through Dec 31,BLDG_OCC_SCH_AUDITORIUM_wk_3
Schedule,BLDG_OCC_SCH_CAFETERIA,FRACTION,Through Jun 30,BLDG_OCC_SCH_CAFETERIA_wk_1,Through Sep 01,BLDG_OCC_SCH_CAFETERIA_wk_2,Through Dec 31,BLDG_OCC_SCH_CAFETERIA_wk_3
Schedule,BLDG_OCC_SCH_EXTEND,FRACTION,Through Jun 30,BLDG_OCC_SCH_EXTEND_wk_1,Through Sep 01,BLDG_OCC_SCH_EXTEND_wk_2,Through Dec 31,BLDG_OCC_SCH_EXTEND_wk_3
Schedule,BLDG_OCC_SCH_GYM,FRACTION,Through Jun 30,BLDG_OCC_SCH_GYM_wk_1,Through Sep 01,BLDG_OCC_SCH_GYM_wk_2,Through Dec 31,BLDG_OCC_SCH_GYM_wk_3
Schedule,BLDG_OCC_SCH_OFFICES,FRACTION,Through Jun 30,BLDG_OCC_SCH_OFFICES_wk_1,Through Sep 01,BLDG_OCC_SCH_OFFICES_wk_2,Through Dec 31,BLDG_OCC_SCH_OFFICES_wk_3
Schedule,KITCHEN_ELEC_EQUIP_SCH,FRACTION,Through Jun 30,KITCHEN_ELEC_EQUIP_SCH_wk_1,Through Sep 01,KITCHEN_ELEC_EQUIP_SCH_wk_2,Through Dec 31,KITCHEN_ELEC_EQUIP_SCH_wk_3
Schedule,KITCHEN_GAS_EQUIP_SCH,FRACTION,Through Jun 30,KITCHEN_GAS_EQUIP_SCH_wk_1,Through Sep 01,KITCHEN_GAS_EQUIP_SCH_wk_2,Through Dec 31,KITCHEN_GAS_EQUIP_SCH_wk_3
Schedule,INFIL_SCH,FRACTION,Through Dec 31,INFIL_SCH_wk_1
Schedule,ACTIVITY_SCH,ANY NUMBER,Through Dec 31,ACTIVITY_SCH_wk_1
Schedule,AIR_VELO_SCH,ANY NUMBER,Through Dec 31,AIR_VELO_SCH_wk_1
Schedule,CLOTHING_SCH,ANY NUMBER,Through Apr 30,CLOTHING_SCH_wk_1,Through Sep 30,CLOTHING_SCH_wk_2,Through Dec 31,CLOTHING_SCH_wk_3
Schedule,WORK_EFF_SCH,FRACTION,Through Dec 31,WORK_EFF_SCH_wk_1
Schedule,CLGSETP_SCH,TEMPERATURE,Through Jun 30,CLGSETP_SCH_wk_1,Through Sep 01,CLGSETP_SCH_wk_2,Through Dec 31,CLGSETP_SCH_wk_3
Schedule,CLGSETP_SCH_BATHCORRMECHKITCHEN,TEMPERATURE,Through Dec 31,CLGSETP_SCH_BATHCORRMECHKITCHEN_wk_1
Schedule,HTGSETP_SCH,TEMPERATURE,Through Jun 30,HTGSETP_SCH_wk_1,Through Sep 01,HTGSETP_SCH_wk_2,Through Dec 31,HTGSETP_SCH_wk_3
Schedule,HTGSETP_SCH_BATHCORRMECHKITCHEN,TEMPERATURE,Through Dec 31,HTGSETP_SCH_BATHCORRMECHKITCHEN_wk_1
Schedule,HVACOPERATIONSCHD,ON/OFF,Through Dec 31,HVACOPERATIONSCHD_wk_1
Schedule,MINOA_SCHED,ON/OFF,Through Dec 31,MINOA_SCHED_wk_1
Schedule,DUAL ZONE CONTROL TYPE SCHED,CONTROL TYPE,Through Dec 31,DUAL ZONE CONTROL TYPE SCHED_wk_1
Schedule,HW-LOOP-TEMP-SCHEDULE,TEMPERATURE,Through Dec 31,HW-LOOP-TEMP-SCHEDULE_wk_1
Schedule,PLANTONSCHED,ANY NUMBER,Through Dec 31,PLANTONSCHED_wk_1
Schedule,KITCHEN_ZN_1_FLR_1_CASE:1_WALKINFREEZER_CASECREDITREDUXSCHED,FRACTION,Through Dec 31,KITCHEN_ZN_1_FLR_1_CASE:1_WALKINFREEZER_CASECREDITREDUXSCHED_wk_1
Schedule,KITCHEN_ZN_1_FLR_1_CASE:1_WALKINFREEZER_CASEDEFROST2ADAYSCHED,ON/OFF,Through Dec 31,KITCHEN_ZN_1_FLR_1_CASE:1_WALKINFREEZER_CASEDEFROST2ADAYSCHED_wk_1
Schedule,KITCHEN_ZN_1_FLR_1_CASE:1_WALKINFREEZER_CASEDRIPDOWN2ADAYSCHED,ON/OFF,Through Dec 31,KITCHEN_ZN_1_FLR_1_CASE:1_WALKINFREEZER_CASEDRIPDOWN2ADAYSCHED_wk_1
Schedule,KITCHEN_ZN_1_FLR_1_CASE:1_WALKINFREEZER_WALKINSTOCKINGSCHED,ANY NUMBER,Through Dec 31,KITCHEN_ZN_1_FLR_1_CASE:1_WALKINFREEZER_WALKINSTOCKINGSCHED_wk_1
Schedule,KITCHEN_ZN_1_FLR_1_CASE:2_SELFCONTAINEDDISPLAYCASE_CASESTOCKINGSCHED,ANY NUMBER,Through Dec 31,KITCHEN_ZN_1_FLR_1_CASE:2_SELFCONTAINEDDISPLAYCASE_CASESTOCKINGSCHED_wk_1
Schedule,BLDG_SWH_SCH,FRACTION,Through Jun 15,BLDG_SWH_SCH_wk_1,Through Sep 15,BLDG_SWH_SCH_wk_2,Through Dec 31,BLDG_SWH_SCH_wk_3
Schedule,SHOWERS_SWH_SCH,FRACTION,Through Jun 30,SHOWERS_SWH_SCH_wk_1,Through Sep 01,SHOWERS_SWH_SCH_wk_2,Through Dec 31,SHOWERS_SWH_SCH_wk_3
Schedule,LATENT FRACT SCHED,FRACTION,Through Dec 31,LATENT FRACT SCHED_wk_1
Schedule,SENSIBLE FRACT SCHED,FRACTION,Through Dec 31,SENSIBLE FRACT SCHED_wk_1
Schedule,HOT SUPPLY TEMP SCHED,TEMPERATURE,Through Dec 31,HOT SUPPLY TEMP SCHED_wk_1
Schedule,SHW_DEFAULT TEMP SCHED,TEMPERATURE,Through Dec 31,SHW_DEFAULT TEMP SCHED_wk_1
Schedule,KITCHEN HOT SUPPLY TEMP SCHED,TEMPERATURE,Through Dec 31,KITCHEN HOT SUPPLY TEMP SCHED_wk_1
Schedule,SHW_KITCHEN TEMP SCHED,TEMPERATURE,Through Dec 31,SHW_KITCHEN TEMP SCHED_wk_1
Schedule,SWHSYS1 WATER HEATER AMBIENT TEMPERATURE SCHEDULE NAME,TEMPERATURE,Through Dec 31,SWHSYS1 WATER HEATER AMBIENT TEMPERATURE SCHEDULE NAME_wk_1
Schedule,SWHSYS1 WATER HEATER SETPOINT TEMPERATURE SCHEDULE NAME,TEMPERATURE,Through Dec 31,SWHSYS1 WATER HEATER SETPOINT TEMPERATURE SCHEDULE NAME_wk_1
Schedule,SWHSYS1-LOOP-TEMP-SCHEDULE,TEMPERATURE,Through Dec 31,SWHSYS1-LOOP-TEMP-SCHEDULE_wk_1
! <Building Information>, Building Name,North Axis {deg},Terrain,  Loads Convergence Tolerance Value,Temperature Convergence Tolerance Value,  Solar Distribution,Maximum Number of Warmup Days,Minimum Number of Warmup Days
 Building Information,Ref Bldg Secondary School Pre1980_v1.3_5.0,0.000,City,4.00000E-002,0.20000,FullInteriorAndExterior,25,6
! <Inside Convection Algorithm>, Algorithm {Simple | TARP | CeilingDiffuser | AdaptiveConvectionAlgorithm}
Inside Convection Algorithm,TARP
! <Outside Convection Algorithm>, Algorithm {SimpleCombined | TARP | MoWitt | DOE-2 | AdaptiveConvectionAlgorithm}
Outside Convection Algorithm,DOE-2
! <Sky Radiance Distribution>, Value {Anisotropic}
Sky Radiance Distribution,Anisotropic
! <Zone Air Solution Algorithm>, Value {ThirdOrderBackwardDifference | AnalyticalSolution | EulerMethod}
 Zone Air Solution Algorithm, AnalyticalSolution
! <Zone Air Carbon Dioxide Balance Simulation>, Simulation {Yes/No}, Carbon Dioxide Concentration
 Zone Air Carbon Dioxide Balance Simulation, No,N/A
! <Zone Air Generic Contaminant Balance Simulation>, Simulation {Yes/No}, Generic Contaminant Concentration
 Zone Air Generic Contaminant Balance Simulation, No,N/A
! <Zone Air Mass Flow Balance Simulation>, Enforce Mass Balance, Adjust Zone Mixing, Adjust Zone Infiltration {AddInfiltration | AdjustInfiltration | None}, Infiltration Zones {MixingSourceZonesOnly | AllZones}
 Zone Air Mass Flow Balance Simulation, No,N/A,N/A,N/A
! <HVACSystemRootFindingAlgorithm>, Value {RegulaFalsi | Bisection | BisectionThenRegulaFalsi | RegulaFalsiThenBisection}
 HVACSystemRootFindingAlgorithm, RegulaFalsi
! <Environment:Site Atmospheric Variation>,Wind Speed Profile Exponent {},Wind Speed Profile Boundary Layer Thickness {m},Air Temperature Gradient Coefficient {K/m}
Environment:Site Atmospheric Variation,0.330,460.000,6.500000E-003
! <Surface Geometry>,Starting Corner,Vertex Input Direction,Coordinate System,Daylight Reference Point Coordinate System,Rectangular (Simple) Surface Coordinate System
 Surface Geometry,UpperLeftCorner,Counterclockwise,RelativeCoordinateSystem,RelativeCoordinateSystem,RelativeToZoneOrigin
! <Surface Heat Transfer Algorithm>, Value {CTF - ConductionTransferFunction | EMPD - MoisturePenetrationDepthConductionTransferFunction | CondFD - ConductionFiniteDifference | HAMT - CombinedHeatAndMoistureFiniteElement} - Description,Inside Surface Max Temperature Limit{C}, Surface Convection Coefficient Lower Limit {W/m2-K}, Surface Convection Coefficient Upper Limit {W/m2-K}
Surface Heat Transfer Algorithm, CTF - ConductionTransferFunction,200,0.10,1000.0
! <Shading Summary>, Number of Fixed Detached Shades, Number of Building Detached Shades, Number of Attached Shades
 Shading Summary,0,0,0
! <Zone Summary>, Number of Zones, Number of Zone Surfaces, Number of SubSurfaces
 Zone Summary,46,437,67
! <Zone Information>,Zone Name,North Axis {deg},Origin X-Coordinate {m},Origin Y-Coordinate {m},Origin Z-Coordinate {m},Centroid X-Coordinate {m},Centroid Y-Coordinate {m},Centroid Z-Coordinate {m},Type,Zone Multiplier,Zone List Multiplier,Minimum X {m},Maximum X {m},Minimum Y {m},Maximum Y {m},Minimum Z {m},Maximum Z {m},Ceiling Height {m},Volume {m3},Zone Inside Convection Algorithm {Simple-Detailed-CeilingDiffuser-TrombeWall},Zone Outside Convection Algorithm {Simple-Detailed-Tarp-MoWitt-DOE-2-BLAST}, Floor Area {m2},Exterior Gross Wall Area {m2},Exterior Net Wall Area {m2},Exterior Window Area {m2}, Number of Surfaces, Number of SubSurfaces, Number of Shading SubSurfaces,  Part of Total Building Area
 Zone Information, AUDITORIUM_ZN_1_FLR_1,0.0,79.00,75.00,0.00,98.00,88.00,4.00,1,1,1,79.00,117.00,75.00,101.00,0.00,8.00,8.00,7904.00,TARP,DOE-2,988.00,512.00,405.60,106.40,10,2,0,Yes
 Zone Information, AUX_GYM_ZN_1_FLR_1,0.0,117.00,14.00,0.00,129.00,40.00,4.00,1,1,1,117.00,141.00,14.00,66.00,0.00,8.00,8.00,9984.00,TARP,DOE-2,1248.00,608.00,395.20,212.80,10,4,0,Yes
 Zone Information, BATHROOMS_ZN_1_FLR_1,0.0,64.00,90.00,0.00,71.50,97.00,2.00,1,1,1,64.00,79.00,90.00,104.00,0.00,4.00,4.00,840.00,TARP,DOE-2,210.00,116.00,90.80,25.20,8,2,0,Yes
 Zone Information, BATHROOMS_ZN_1_FLR_2,0.0,64.00,90.00,4.00,71.50,97.00,6.00,1,1,1,64.00,79.00,90.00,104.00,4.00,8.00,4.00,840.00,TARP,DOE-2,210.00,116.00,90.80,25.20,8,2,0,Yes
 Zone Information, CAFETERIA_ZN_1_FLR_1,0.0,117.00,75.00,0.00,129.00,88.00,2.00,1,1,1,117.00,141.00,75.00,101.00,0.00,4.00,4.00,2496.00,TARP,DOE-2,624.00,200.00,130.00,70.00,6,2,0,Yes
 Zone Information, CORNER_CLASS_1_POD_1_ZN_1_FLR_1,0.0,0.00,0.00,0.00,5.50,4.50,2.00,1,1,1,0.00,11.00,0.00,9.00,0.00,4.00,4.00,396.00,TARP,DOE-2,99.00,80.00,52.00,28.00,6,2,0,Yes
 Zone Information, CORNER_CLASS_1_POD_1_ZN_1_FLR_2,0.0,0.00,0.00,4.00,5.50,4.50,6.00,1,1,1,0.00,11.00,0.00,9.00,4.00,8.00,4.00,396.00,TARP,DOE-2,99.00,80.00,52.00,28.00,6,2,0,Yes
 Zone Information, CORNER_CLASS_1_POD_2_ZN_1_FLR_1,0.0,0.00,40.00,0.00,5.50,44.50,2.00,1,1,1,0.00,11.00,40.00,49.00,0.00,4.00,4.00,396.00,TARP,DOE-2,99.00,80.00,52.00,28.00,6,2,0,Yes
 Zone Information, CORNER_CLASS_1_POD_2_ZN_1_FLR_2,0.0,0.00,40.00,4.00,5.50,44.50,6.00,1,1,1,0.00,11.00,40.00,49.00,4.00,8.00,4.00,396.00,TARP,DOE-2,99.00,80.00,52.00,28.00,6,2,0,Yes
 Zone Information, CORNER_CLASS_1_POD_3_ZN_1_FLR_1,0.0,0.00,81.00,0.00,5.50,85.50,2.00,1,1,1,0.00,11.00,81.00,90.00,0.00,4.00,4.00,396.00,TARP,DOE-2,99.00,80.00,52.00,28.00,6,2,0,Yes
 Zone Information, CORNER_CLASS_1_POD_3_ZN_1_FLR_2,0.0,0.00,81.00,4.00,5.50,85.50,6.00,1,1,1,0.00,11.00,81.00,90.00,4.00,8.00,4.00,396.00,TARP,DOE-2,99.00,80.00,52.00,28.00,6,2,0,Yes
 Zone Information, CORNER_CLASS_2_POD_1_ZN_1_FLR_1,0.0,0.00,14.00,0.00,5.50,18.50,2.00,1,1,1,0.00,11.00,14.00,23.00,0.00,4.00,4.00,396.00,TARP,DOE-2,99.00,80.00,52.00,28.00,6,2,0,Yes
 Zone Information, CORNER_CLASS_2_POD_1_ZN_1_FLR_2,0.0,0.00,14.00,4.00,5.50,18.50,6.00,1,1,1,0.00,11.00,14.00,23.00,4.00,8.00,4.00,396.00,TARP,DOE-2,99.00,80.00,52.00,28.00,6,2,0,Yes
 Zone Information, CORNER_CLASS_2_POD_2_ZN_1_FLR_1,0.0,0.00,54.00,0.00,5.50,58.50,2.00,1,1,1,0.00,11.00,54.00,63.00,0.00,4.00,4.00,396.00,TARP,DOE-2,99.00,80.00,52.00,28.00,6,2,0,Yes
 Zone Information, CORNER_CLASS_2_POD_2_ZN_1_FLR_2,0.0,0.00,54.00,4.00,5.50,58.50,6.00,1,1,1,0.00,11.00,54.00,63.00,4.00,8.00,4.00,396.00,TARP,DOE-2,99.00,80.00,52.00,28.00,6,2,0,Yes
 Zone Information, CORNER_CLASS_2_POD_3_ZN_1_FLR_1,0.0,0.00,95.00,0.00,5.50,99.50,2.00,1,1,1,0.00,11.00,95.00,104.00,0.00,4.00,4.00,396.00,TARP,DOE-2,99.00,80.00,52.00,28.00,6,2,0,Yes
 Zone Information, CORNER_CLASS_2_POD_3_ZN_1_FLR_2,0.0,0.00,95.00,4.00,5.50,99.50,6.00,1,1,1,0.00,11.00,95.00,104.00,4.00,8.00,4.00,396.00,TARP,DOE-2,99.00,80.00,52.00,28.00,6,2,0,Yes
 Zone Information, CORRIDOR_POD_1_ZN_1_FLR_1,0.0,0.00,9.00,0.00,32.00,11.50,2.00,1,1,1,0.00,64.00,9.00,14.00,0.00,4.00,4.00,1280.00,TARP,DOE-2,320.00,20.00,13.00,7.00,8,1,0,Yes
 Zone Information, CORRIDOR_POD_1_ZN_1_FLR_2,0.0,0.00,9.00,4.00,32.00,11.50,6.00,1,1,1,0.00,64.00,9.00,14.00,4.00,8.00,4.00,1280.00,TARP,DOE-2,320.00,20.00,13.00,7.00,8,1,0,Yes
 Zone Information, CORRIDOR_POD_2_ZN_1_FLR_1,0.0,0.00,49.00,0.00,32.00,51.50,2.00,1,1,1,0.00,64.00,49.00,54.00,0.00,4.00,4.00,1280.00,TARP,DOE-2,320.00,20.00,13.00,7.00,8,1,0,Yes
 Zone Information, CORRIDOR_POD_2_ZN_1_FLR_2,0.0,0.00,49.00,4.00,32.00,51.50,6.00,1,1,1,0.00,64.00,49.00,54.00,4.00,8.00,4.00,1280.00,TARP,DOE-2,320.00,20.00,13.00,7.00,8,1,0,Yes
 Zone Information, CORRIDOR_POD_3_ZN_1_FLR_1,0.0,0.00,90.00,0.00,32.00,92.50,2.00,1,1,1,0.00,64.00,90.00,95.00,0.00,4.00,4.00,1280.00,TARP,DOE-2,320.00,20.00,13.00,7.00,8,1,0,Yes
 Zone Information, CORRIDOR_POD_3_ZN_1_FLR_2,0.0,0.00,90.00,4.00,32.00,92.50,6.00,1,1,1,0.00,64.00,90.00,95.00,4.00,8.00,4.00,1280.00,TARP,DOE-2,320.00,20.00,13.00,7.00,8,1,0,Yes
 Zone Information, GYM_ZN_1_FLR_1,0.0,79.00,14.00,0.00,98.00,40.00,4.00,1,1,1,79.00,117.00,14.00,66.00,0.00,8.00,8.00,15808.00,TARP,DOE-2,1976.00,0.00,0.00,0.00,10,0,0,Yes
 Zone Information, KITCHEN_ZN_1_FLR_1,0.0,117.00,66.00,0.00,129.00,70.50,2.00,1,1,1,117.00,141.00,66.00,75.00,0.00,4.00,4.00,864.00,TARP,DOE-2,216.00,36.00,23.40,12.60,6,1,0,Yes
 Zone Information, LIBRARY_MEDIA_CENTER_ZN_1_FLR_2,0.0,117.00,66.00,4.00,129.00,83.50,6.00,1,1,1,117.00,141.00,66.00,101.00,4.00,8.00,4.00,3360.00,TARP,DOE-2,840.00,236.00,152.99,83.01,8,2,0,Yes
 Zone Information, LOBBY_ZN_1_FLR_1,0.0,64.00,0.00,0.00,71.50,7.00,2.00,1,1,1,64.00,79.00,0.00,14.00,0.00,4.00,4.00,840.00,TARP,DOE-2,210.00,60.00,39.00,21.00,7,1,0,Yes
 Zone Information, LOBBY_ZN_1_FLR_2,0.0,64.00,0.00,4.00,71.50,7.00,6.00,1,1,1,64.00,79.00,0.00,14.00,4.00,8.00,4.00,840.00,TARP,DOE-2,210.00,60.00,39.00,21.00,7,1,0,Yes
 Zone Information, MAIN_CORRIDOR_ZN_1_FLR_1,0.0,64.00,14.00,0.00,71.50,52.00,2.00,1,1,1,64.00,79.00,14.00,90.00,0.00,4.00,4.00,4560.00,TARP,DOE-2,1140.00,200.00,151.00,49.00,14,2,0,Yes
 Zone Information, MAIN_CORRIDOR_ZN_1_FLR_2,0.0,64.00,14.00,4.00,71.50,52.00,6.00,1,1,1,64.00,79.00,14.00,90.00,4.00,8.00,4.00,4560.00,TARP,DOE-2,1140.00,200.00,151.00,49.00,14,2,0,Yes
 Zone Information, MECH_ZN_1_FLR_1,0.0,79.00,66.00,0.00,98.00,70.50,2.00,1,1,1,79.00,117.00,66.00,75.00,0.00,4.00,4.00,1368.00,TARP,DOE-2,342.00,0.00,0.00,0.00,6,0,0,Yes
 Zone Information, MECH_ZN_1_FLR_2,0.0,79.00,66.00,4.00,98.00,70.50,6.00,1,1,1,79.00,117.00,66.00,75.00,4.00,8.00,4.00,1368.00,TARP,DOE-2,342.00,0.00,0.00,0.00,6,0,0,Yes
 Zone Information, MULT_CLASS_1_POD_1_ZN_1_FLR_1,0.0,11.00,0.00,0.00,37.50,4.50,2.00,1,1,1,11.00,64.00,0.00,9.00,0.00,4.00,4.00,1908.00,TARP,DOE-2,477.00,212.00,137.80,74.20,6,1,0,Yes
 Zone Information, MULT_CLASS_1_POD_1_ZN_1_FLR_2,0.0,11.00,0.00,4.00,37.50,4.50,6.00,1,1,1,11.00,64.00,0.00,9.00,4.00,8.00,4.00,1908.00,TARP,DOE-2,477.00,212.00,137.80,74.20,6,1,0,Yes
 Zone Information, MULT_CLASS_1_POD_2_ZN_1_FLR_1,0.0,11.00,40.00,0.00,37.50,44.50,2.00,1,1,1,11.00,64.00,40.00,49.00,0.00,4.00,4.00,1908.00,TARP,DOE-2,477.00,212.00,137.80,74.20,6,1,0,Yes
 Zone Information, MULT_CLASS_1_POD_2_ZN_1_FLR_2,0.0,11.00,40.00,4.00,37.50,44.50,6.00,1,1,1,11.00,64.00,40.00,49.00,4.00,8.00,4.00,1908.00,TARP,DOE-2,477.00,212.00,137.80,74.20,6,1,0,Yes
 Zone Information, MULT_CLASS_1_POD_3_ZN_1_FLR_1,0.0,11.00,81.00,0.00,37.50,85.50,2.00,1,1,1,11.00,64.00,81.00,90.00,0.00,4.00,4.00,1908.00,TARP,DOE-2,477.00,212.00,137.80,74.20,6,1,0,Yes
 Zone Information, MULT_CLASS_1_POD_3_ZN_1_FLR_2,0.0,11.00,81.00,4.00,37.50,85.50,6.00,1,1,1,11.00,64.00,81.00,90.00,4.00,8.00,4.00,1908.00,TARP,DOE-2,477.00,212.00,137.80,74.20,6,1,0,Yes
 Zone Information, MULT_CLASS_2_POD_1_ZN_1_FLR_1,0.0,11.00,14.00,0.00,37.50,18.50,2.00,1,1,1,11.00,64.00,14.00,23.00,0.00,4.00,4.00,1908.00,TARP,DOE-2,477.00,212.00,137.80,74.20,6,1,0,Yes
 Zone Information, MULT_CLASS_2_POD_1_ZN_1_FLR_2,0.0,11.00,14.00,4.00,37.50,18.50,6.00,1,1,1,11.00,64.00,14.00,23.00,4.00,8.00,4.00,1908.00,TARP,DOE-2,477.00,212.00,137.80,74.20,6,1,0,Yes
 Zone Information, MULT_CLASS_2_POD_2_ZN_1_FLR_1,0.0,11.00,54.00,0.00,37.50,58.50,2.00,1,1,1,11.00,64.00,54.00,63.00,0.00,4.00,4.00,1908.00,TARP,DOE-2,477.00,212.00,137.80,74.20,6,1,0,Yes
 Zone Information, MULT_CLASS_2_POD_2_ZN_1_FLR_2,0.0,11.00,54.00,4.00,37.50,58.50,6.00,1,1,1,11.00,64.00,54.00,63.00,4.00,8.00,4.00,1908.00,TARP,DOE-2,477.00,212.00,137.80,74.20,6,1,0,Yes
 Zone Information, MULT_CLASS_2_POD_3_ZN_1_FLR_1,0.0,11.00,95.00,0.00,37.50,99.50,2.00,1,1,1,11.00,64.00,95.00,104.00,0.00,4.00,4.00,1908.00,TARP,DOE-2,477.00,212.00,137.80,74.20,6,1,0,Yes
 Zone Information, MULT_CLASS_2_POD_3_ZN_1_FLR_2,0.0,11.00,95.00,4.00,37.50,99.50,6.00,1,1,1,11.00,64.00,95.00,104.00,4.00,8.00,4.00,1908.00,TARP,DOE-2,477.00,212.00,137.80,74.20,6,1,0,Yes
 Zone Information, OFFICES_ZN_1_FLR_1,0.0,79.00,0.00,0.00,98.00,7.00,2.00,1,1,1,79.00,117.00,0.00,14.00,0.00,4.00,4.00,2128.00,TARP,DOE-2,532.00,208.00,135.20,72.80,6,2,0,Yes
 Zone Information, OFFICES_ZN_1_FLR_2,0.0,79.00,0.00,4.00,98.00,7.00,6.00,1,1,1,79.00,117.00,0.00,14.00,4.00,8.00,4.00,2128.00,TARP,DOE-2,532.00,208.00,135.20,72.80,6,2,0,Yes
! <Zone Internal Gains Nominal>,Zone Name, Floor Area {m2},# Occupants,Area per Occupant {m2/person},Occupant per Area {person/m2},Interior Lighting {W/m2},Electric Load {W/m2},Gas Load {W/m2},Other Load {W/m2},Hot Water Eq {W/m2},Steam Equipment {W/m2},Sum Loads per Area {W/m2},Outdoor Controlled Baseboard Heat
 Zone Internal Gains Nominal, AUDITORIUM_ZN_1_FLR_1,988.00,988.0,1.000,1.000,12.080,5.000,0.000,0.000,0.000,0.000,17.080,No
 Zone Internal Gains Nominal, AUX_GYM_ZN_1_FLR_1,1248.00,374.8,3.330,0.300,11.810,5.000,0.000,0.000,0.000,0.000,16.810,No
 Zone Internal Gains Nominal, BATHROOMS_ZN_1_FLR_1,210.00,21.0,10.000,0.100,9.600,4.000,0.000,0.000,0.000,0.000,13.600,No
 Zone Internal Gains Nominal, BATHROOMS_ZN_1_FLR_2,210.00,21.0,10.000,0.100,9.600,4.000,0.000,0.000,0.000,0.000,13.600,No
 Zone Internal Gains Nominal, CAFETERIA_ZN_1_FLR_1,624.00,448.9,1.390,0.719,14.380,19.260,0.000,0.000,0.000,0.000,33.640,No
 Zone Internal Gains Nominal, CORNER_CLASS_1_POD_1_ZN_1_FLR_1,99.00,24.8,4.000,0.250,21.520,10.000,0.000,0.000,0.000,0.000,31.520,No
 Zone Internal Gains Nominal, CORNER_CLASS_1_POD_1_ZN_1_FLR_2,99.00,24.8,4.000,0.250,21.520,10.000,0.000,0.000,0.000,0.000,31.520,No
 Zone Internal Gains Nominal, CORNER_CLASS_1_POD_2_ZN_1_FLR_1,99.00,24.8,4.000,0.250,21.520,10.000,0.000,0.000,0.000,0.000,31.520,No
 Zone Internal Gains Nominal, CORNER_CLASS_1_POD_2_ZN_1_FLR_2,99.00,24.8,4.000,0.250,21.520,10.000,0.000,0.000,0.000,0.000,31.520,No
 Zone Internal Gains Nominal, CORNER_CLASS_1_POD_3_ZN_1_FLR_1,99.00,24.8,4.000,0.250,21.520,10.000,0.000,0.000,0.000,0.000,31.520,No
 Zone Internal Gains Nominal, CORNER_CLASS_1_POD_3_ZN_1_FLR_2,99.00,24.8,4.000,0.250,21.520,10.000,0.000,0.000,0.000,0.000,31.520,No
 Zone Internal Gains Nominal, CORNER_CLASS_2_POD_1_ZN_1_FLR_1,99.00,24.8,4.000,0.250,21.520,10.000,0.000,0.000,0.000,0.000,31.520,No
 Zone Internal Gains Nominal, CORNER_CLASS_2_POD_1_ZN_1_FLR_2,99.00,24.8,4.000,0.250,21.520,10.000,0.000,0.000,0.000,0.000,31.520,No
 Zone Internal Gains Nominal, CORNER_CLASS_2_POD_2_ZN_1_FLR_1,99.00,24.8,4.000,0.250,21.520,10.000,0.000,0.000,0.000,0.000,31.520,No
 Zone Internal Gains Nominal, CORNER_CLASS_2_POD_2_ZN_1_FLR_2,99.00,24.8,4.000,0.250,21.520,10.000,0.000,0.000,0.000,0.000,31.520,No
 Zone Internal Gains Nominal, CORNER_CLASS_2_POD_3_ZN_1_FLR_1,99.00,24.8,4.000,0.250,21.520,10.000,0.000,0.000,0.000,0.000,31.520,No
 Zone Internal Gains Nominal, CORNER_CLASS_2_POD_3_ZN_1_FLR_2,99.00,24.8,4.000,0.250,21.520,10.000,0.000,0.000,0.000,0.000,31.520,No
 Zone Internal Gains Nominal, CORRIDOR_POD_1_ZN_1_FLR_1,320.00,32.0,10.000,0.100,14.380,4.000,0.000,0.000,0.000,0.000,18.380,No
 Zone Internal Gains Nominal, CORRIDOR_POD_1_ZN_1_FLR_2,320.00,32.0,10.000,0.100,9.250,4.000,0.000,0.000,0.000,0.000,13.250,No
 Zone Internal Gains Nominal, CORRIDOR_POD_2_ZN_1_FLR_1,320.00,32.0,10.000,0.100,9.250,4.000,0.000,0.000,0.000,0.000,13.250,No
 Zone Internal Gains Nominal, CORRIDOR_POD_2_ZN_1_FLR_2,320.00,32.0,10.000,0.100,9.250,4.000,0.000,0.000,0.000,0.000,13.250,No
 Zone Internal Gains Nominal, CORRIDOR_POD_3_ZN_1_FLR_1,320.00,32.0,10.000,0.100,9.250,4.000,0.000,0.000,0.000,0.000,13.250,No
 Zone Internal Gains Nominal, CORRIDOR_POD_3_ZN_1_FLR_2,320.00,32.0,10.000,0.100,9.250,4.000,0.000,0.000,0.000,0.000,13.250,No
 Zone Internal Gains Nominal, GYM_ZN_1_FLR_1,1976.00,1976.0,1.000,1.000,11.380,5.000,0.000,0.000,0.000,0.000,16.380,No
 Zone Internal Gains Nominal, KITCHEN_ZN_1_FLR_1,216.00,32.4,6.667,0.150,16.760,225.431,1119.042,0.000,0.000,0.000,1361.232,No
 Zone Internal Gains Nominal, LIBRARY_MEDIA_CENTER_ZN_1_FLR_2,840.00,193.1,4.350,0.230,16.330,10.000,0.000,0.000,0.000,0.000,26.330,No
 Zone Internal Gains Nominal, LOBBY_ZN_1_FLR_1,210.00,0.0,N/A,0.000,12.000,4.000,0.000,0.000,0.000,0.000,16.000,No
 Zone Internal Gains Nominal, LOBBY_ZN_1_FLR_2,210.00,0.0,N/A,0.000,12.000,4.000,0.000,0.000,0.000,0.000,16.000,No
 Zone Internal Gains Nominal, MAIN_CORRIDOR_ZN_1_FLR_1,1140.00,0.0,N/A,0.000,9.250,4.000,0.000,0.000,0.000,0.000,13.250,No
 Zone Internal Gains Nominal, MAIN_CORRIDOR_ZN_1_FLR_2,1140.00,0.0,N/A,0.000,9.250,4.000,0.000,0.000,0.000,0.000,13.250,No
 Zone Internal Gains Nominal, MECH_ZN_1_FLR_1,342.00,3.4,100.000,1.000E-002,8.050,97.889,0.000,0.000,0.000,0.000,105.939,No
 Zone Internal Gains Nominal, MECH_ZN_1_FLR_2,342.00,3.4,100.000,1.000E-002,8.050,4.000,0.000,0.000,0.000,0.000,12.050,No
 Zone Internal Gains Nominal, MULT_CLASS_1_POD_1_ZN_1_FLR_1,477.00,119.3,4.000,0.250,14.380,10.000,0.000,0.000,0.000,0.000,24.380,No
 Zone Internal Gains Nominal, MULT_CLASS_1_POD_1_ZN_1_FLR_2,477.00,119.3,4.000,0.250,21.520,10.000,0.000,0.000,0.000,0.000,31.520,No
 Zone Internal Gains Nominal, MULT_CLASS_1_POD_2_ZN_1_FLR_1,477.00,119.3,4.000,0.250,21.520,10.000,0.000,0.000,0.000,0.000,31.520,No
[...]
 Component Sizing Information, Coil:Heating:Fuel, PSZ-AC_3:7_HEATC, Design Size Nominal Capacity [W], 565964.55890
 Component Sizing Information, Fan:ConstantVolume, PSZ-AC_3:7_FAN, Design Size Maximum Flow Rate [m3/s], 7.90400
 Component Sizing Information, Controller:OutdoorAir, PSZ-AC_4:8_OA_CONTROLLER, Maximum Outdoor Air Flow Rate [m3/s], 0.56159
 Component Sizing Information, Controller:OutdoorAir, PSZ-AC_4:8_OA_CONTROLLER, Minimum Outdoor Air Flow Rate [m3/s], 0.25920
 Component Sizing Information, Coil:Cooling:DX:SingleSpeed, PSZ-AC_4:8_COOLC DXCOIL, Design Size Rated Air Flow Rate [m3/s], 0.56159
 Component Sizing Information, Coil:Cooling:DX:SingleSpeed, PSZ-AC_4:8_COOLC DXCOIL, Design Size Gross Rated Total Cooling Capacity [W], 13945.56776
 Component Sizing Information, Coil:Cooling:DX:SingleSpeed, PSZ-AC_4:8_COOLC DXCOIL, Design Size Gross Rated Sensible Heat Ratio, 0.69808
 DX Cooling Coil Standard Rating Information, Coil:Cooling:DX:SingleSpeed, PSZ-AC_4:8_COOLC DXCOIL, 13509.9, 3.19, 10.88, 12.53, 12.16
 Component Sizing Information, Coil:Heating:Fuel, PSZ-AC_4:8_HEATC, Design Size Nominal Capacity [W], 40212.41302
 Component Sizing Information, Fan:ConstantVolume, PSZ-AC_4:8_FAN, Design Size Maximum Flow Rate [m3/s], 0.56159
 Component Sizing Information, Controller:OutdoorAir, PSZ-AC_5:9_OA_CONTROLLER, Maximum Outdoor Air Flow Rate [m3/s], 4.48921
 Component Sizing Information, Controller:OutdoorAir, PSZ-AC_5:9_OA_CONTROLLER, Minimum Outdoor Air Flow Rate [m3/s], 4.48921
 Component Sizing Information, Coil:Cooling:DX:SingleSpeed, PSZ-AC_5:9_COOLC DXCOIL, Design Size Rated Air Flow Rate [m3/s], 4.48921
 Component Sizing Information, Coil:Cooling:DX:SingleSpeed, PSZ-AC_5:9_COOLC DXCOIL, Design Size Gross Rated Total Cooling Capacity [W], 111477.74108
 Component Sizing Information, Coil:Cooling:DX:SingleSpeed, PSZ-AC_5:9_COOLC DXCOIL, Design Size Gross Rated Sensible Heat Ratio, 0.69808
 DX Cooling Coil Standard Rating Information, Coil:Cooling:DX:SingleSpeed, PSZ-AC_5:9_COOLC DXCOIL, 107995.4, 2.84, 9.71, 11.93, 11.06
 Component Sizing Information, Coil:Heating:Fuel, PSZ-AC_5:9_HEATC, Design Size Nominal Capacity [W], 321449.01112
 Component Sizing Information, Fan:ConstantVolume, PSZ-AC_5:9_FAN, Design Size Maximum Flow Rate [m3/s], 4.48921
 Component Sizing Information, Controller:OutdoorAir, CAV_OTHER_OA_CONTROLLER, Maximum Outdoor Air Flow Rate [m3/s], 15.96940
 Component Sizing Information, Controller:OutdoorAir, CAV_OTHER_OA_CONTROLLER, Minimum Outdoor Air Flow Rate [m3/s], 4.64783
 Component Sizing Information, Coil:Cooling:DX:TwoSpeed, CAV_OTHER_COOLC DXCOIL, Design Size High Speed Rated Air Flow Rate [m3/s], 15.96940
 Component Sizing Information, Coil:Cooling:DX:TwoSpeed, CAV_OTHER_COOLC DXCOIL, Design Size High Speed Gross Rated Total Cooling Capacity [W], 396558.19382
 Component Sizing Information, Coil:Cooling:DX:TwoSpeed, CAV_OTHER_COOLC DXCOIL, Design Size High Speed Rated Sensible Heat Ratio, 0.69808
 Component Sizing Information, Coil:Cooling:DX:TwoSpeed, CAV_OTHER_COOLC DXCOIL, Design Size Low Speed Rated Air Flow Rate [m3/s], 5.32260
 Component Sizing Information, Coil:Cooling:DX:TwoSpeed, CAV_OTHER_COOLC DXCOIL, Design Size Low Speed Gross Rated Total Cooling Capacity [W], 132172.84600
 Component Sizing Information, Coil:Cooling:DX:TwoSpeed, CAV_OTHER_COOLC DXCOIL, Design Size Low Speed Gross Rated Sensible Heat Ratio, 0.69808
 Component Sizing Information, Coil:Heating:Water, CAV_OTHER_HEATC, Design Size Rated Capacity [W], 149012.41489
 Component Sizing Information, Coil:Heating:Water, CAV_OTHER_HEATC, Design Size Maximum Water Flow Rate [m3/s], 3.26259E-003
 Component Sizing Information, Coil:Heating:Water, CAV_OTHER_HEATC, Design Size U-Factor Times Area Value [W/K], 2410.36173
Water Heating Coil Capacity Information,Coil:Heating:Water,CAV_OTHER_HEATC,133352.02
 Component Sizing Information, Fan:ConstantVolume, CAV_OTHER_FAN, Design Size Maximum Flow Rate [m3/s], 15.96940
 Component Sizing Information, Controller:WaterCoil, CAV_OTHER_HEATC_CONTROLLER, Maximum Actuated Flow [m3/s], 3.26259E-003
 Component Sizing Information, Controller:OutdoorAir, CAV_POD_1_OA_CONTROLLER, Maximum Outdoor Air Flow Rate [m3/s], 10.03149
 Component Sizing Information, Controller:OutdoorAir, CAV_POD_1_OA_CONTROLLER, Minimum Outdoor Air Flow Rate [m3/s], 4.92800
 Component Sizing Information, Coil:Cooling:DX:TwoSpeed, CAV_POD_1_COOLC DXCOIL, Design Size High Speed Rated Air Flow Rate [m3/s], 10.03149
 Component Sizing Information, Coil:Cooling:DX:TwoSpeed, CAV_POD_1_COOLC DXCOIL, Design Size High Speed Gross Rated Total Cooling Capacity [W], 249105.88580
 Component Sizing Information, Coil:Cooling:DX:TwoSpeed, CAV_POD_1_COOLC DXCOIL, Design Size High Speed Rated Sensible Heat Ratio, 0.69808
 Component Sizing Information, Coil:Cooling:DX:TwoSpeed, CAV_POD_1_COOLC DXCOIL, Design Size Low Speed Rated Air Flow Rate [m3/s], 3.34350
 Component Sizing Information, Coil:Cooling:DX:TwoSpeed, CAV_POD_1_COOLC DXCOIL, Design Size Low Speed Gross Rated Total Cooling Capacity [W], 83026.99174
 Component Sizing Information, Coil:Cooling:DX:TwoSpeed, CAV_POD_1_COOLC DXCOIL, Design Size Low Speed Gross Rated Sensible Heat Ratio, 0.69808
 Component Sizing Information, Coil:Heating:Water, CAV_POD_1_HEATC, Design Size Rated Capacity [W], 191469.50881
 Component Sizing Information, Coil:Heating:Water, CAV_POD_1_HEATC, Design Size Maximum Water Flow Rate [m3/s], 4.19217E-003
 Component Sizing Information, Coil:Heating:Water, CAV_POD_1_HEATC, Design Size U-Factor Times Area Value [W/K], 2922.76702
Water Heating Coil Capacity Information,Coil:Heating:Water,CAV_POD_1_HEATC,154147.94
 Component Sizing Information, Fan:ConstantVolume, CAV_POD_1_FAN, Design Size Maximum Flow Rate [m3/s], 10.03149
 Component Sizing Information, Controller:WaterCoil, CAV_POD_1_HEATC_CONTROLLER, Maximum Actuated Flow [m3/s], 4.19217E-003
 Component Sizing Information, Controller:OutdoorAir, CAV_POD_2_OA_CONTROLLER, Maximum Outdoor Air Flow Rate [m3/s], 10.03385
 Component Sizing Information, Controller:OutdoorAir, CAV_POD_2_OA_CONTROLLER, Minimum Outdoor Air Flow Rate [m3/s], 4.92800
 Component Sizing Information, Coil:Cooling:DX:TwoSpeed, CAV_POD_2_COOLC DXCOIL, Design Size High Speed Rated Air Flow Rate [m3/s], 10.03385
 Component Sizing Information, Coil:Cooling:DX:TwoSpeed, CAV_POD_2_COOLC DXCOIL, Design Size High Speed Gross Rated Total Cooling Capacity [W], 249164.50279
 Component Sizing Information, Coil:Cooling:DX:TwoSpeed, CAV_POD_2_COOLC DXCOIL, Design Size High Speed Rated Sensible Heat Ratio, 0.69808
 Component Sizing Information, Coil:Cooling:DX:TwoSpeed, CAV_POD_2_COOLC DXCOIL, Design Size Low Speed Rated Air Flow Rate [m3/s], 3.34428
 Component Sizing Information, Coil:Cooling:DX:TwoSpeed, CAV_POD_2_COOLC DXCOIL, Design Size Low Speed Gross Rated Total Cooling Capacity [W], 83046.52878
 Component Sizing Information, Coil:Cooling:DX:TwoSpeed, CAV_POD_2_COOLC DXCOIL, Design Size Low Speed Gross Rated Sensible Heat Ratio, 0.69808
 Component Sizing Information, Coil:Heating:Water, CAV_POD_2_HEATC, Design Size Rated Capacity [W], 191459.35406
 Component Sizing Information, Coil:Heating:Water, CAV_POD_2_HEATC, Design Size Maximum Water Flow Rate [m3/s], 4.19195E-003
 Component Sizing Information, Coil:Heating:Water, CAV_POD_2_HEATC, Design Size U-Factor Times Area Value [W/K], 2922.72991
Water Heating Coil Capacity Information,Coil:Heating:Water,CAV_POD_2_HEATC,154148.58
 Component Sizing Information, Fan:ConstantVolume, CAV_POD_2_FAN, Design Size Maximum Flow Rate [m3/s], 10.03385
 Component Sizing Information, Controller:WaterCoil, CAV_POD_2_HEATC_CONTROLLER, Maximum Actuated Flow [m3/s], 4.19195E-003
 Component Sizing Information, Controller:OutdoorAir, CAV_POD_3_OA_CONTROLLER, Maximum Outdoor Air Flow Rate [m3/s], 10.70603
 Component Sizing Information, Controller:OutdoorAir, CAV_POD_3_OA_CONTROLLER, Minimum Outdoor Air Flow Rate [m3/s], 4.92800
 Component Sizing Information, Coil:Cooling:DX:TwoSpeed, CAV_POD_3_COOLC DXCOIL, Design Size High Speed Rated Air Flow Rate [m3/s], 10.70603
 Component Sizing Information, Coil:Cooling:DX:TwoSpeed, CAV_POD_3_COOLC DXCOIL, Design Size High Speed Gross Rated Total Cooling Capacity [W], 265856.31895
 Component Sizing Information, Coil:Cooling:DX:TwoSpeed, CAV_POD_3_COOLC DXCOIL, Design Size High Speed Rated Sensible Heat Ratio, 0.69808
 Component Sizing Information, Coil:Cooling:DX:TwoSpeed, CAV_POD_3_COOLC DXCOIL, Design Size Low Speed Rated Air Flow Rate [m3/s], 3.56832
 Component Sizing Information, Coil:Cooling:DX:TwoSpeed, CAV_POD_3_COOLC DXCOIL, Design Size Low Speed Gross Rated Total Cooling Capacity [W], 88609.91111
 Component Sizing Information, Coil:Cooling:DX:TwoSpeed, CAV_POD_3_COOLC DXCOIL, Design Size Low Speed Gross Rated Sensible Heat Ratio, 0.69808
 Component Sizing Information, Coil:Heating:Water, CAV_POD_3_HEATC, Design Size Rated Capacity [W], 188072.74804
 Component Sizing Information, Coil:Heating:Water, CAV_POD_3_HEATC, Design Size Maximum Water Flow Rate [m3/s], 4.11780E-003
 Component Sizing Information, Coil:Heating:Water, CAV_POD_3_HEATC, Design Size U-Factor Times Area Value [W/K], 2903.45430
Water Heating Coil Capacity Information,Coil:Heating:Water,CAV_POD_3_HEATC,153834.47
 Component Sizing Information, Fan:ConstantVolume, CAV_POD_3_FAN, Design Size Maximum Flow Rate [m3/s], 10.70603
 Component Sizing Information, Controller:WaterCoil, CAV_POD_3_HEATC_CONTROLLER, Maximum Actuated Flow [m3/s], 4.11780E-003
Water Heater Information,WaterHeater:Mixed,SWHSYS1 WATER HEATER,3.0000,845000.0,0.231,0.6798
 Component Sizing Information, PlantLoop, HEATSYS1, Maximum Loop Flow Rate [m3/s], 4.65202E-002
 Component Sizing Information, PlantLoop, HEATSYS1, Plant Loop Volume [m3], 5.58243
 Component Sizing Information, Pump:VariableSpeed, HEATSYS1 PUMP, Design Flow Rate [m3/s], 4.65202E-002
 Component Sizing Information, Pump:VariableSpeed, HEATSYS1 PUMP, Design Power Consumption [W], 11885.31840
 Component Sizing Information, Boiler:HotWater, HEATSYS1 BOILER, Design Size Nominal Capacity [W], 2124721.53519
 Component Sizing Information, Boiler:HotWater, HEATSYS1 BOILER, Design Size Design Water Flow Rate [m3/s], 4.65202E-002
 Component Sizing Information, PlantLoop, SWHSYS1, Maximum Loop Flow Rate [m3/s], 4.48820E-004
 Component Sizing Information, PlantLoop, SWHSYS1, Plant Loop Volume [m3], 5.38584E-002
 Component Sizing Information, Pump:VariableSpeed, SWHSYS1 PUMP, Design Flow Rate [m3/s], 4.48820E-004
 Component Sizing Information, Pump:VariableSpeed, SWHSYS1 PUMP, Design Power Consumption [W], 114.66776
 Component Sizing Information, WaterHeater:Mixed, SWHSYS1 WATER HEATER, Use Side Design Flow Rate [m3/s], 4.48820E-004
! <Environment>,Environment Name,Environment Type, Start Date, End Date, Start DayOfWeek, Duration {#days}, Source:Start DayOfWeek,  Use Daylight Saving, Use Holidays, Apply Weekend Holiday Rule,  Use Rain Values, Use Snow Values
! <Environment:Special Days>, Special Day Name, Special Day Type, Source, Start Date, Duration {#days}
! <Environment:Daylight Saving>, Daylight Saving Indicator, Source, Start Date, End Date
! <Environment:WarmupDays>, NumberofWarmupDays
Environment,RUNPERIOD 1,WeatherFileRunPeriod,01/01/2017,12/31/2017,Sunday,365,Use RunPeriod Specified Day,No,No,No,Yes,Yes
Environment:Daylight Saving,Yes,InputFile,03/12,11/05
Environment:Special Days,NEW YEARS DAY,Holiday,InputFile,01/01,  1
Environment:Special Days,VETERANS DAY,Holiday,InputFile,11/11,  1
Environment:Special Days,CHRISTMAS,Holiday,InputFile,12/25,  1
Environment:Special Days,INDEPENDENCE DAY,Holiday,InputFile,07/04,  1
Environment:Special Days,MLK DAY,Holiday,InputFile,01/16,  1
Environment:Special Days,PRESIDENTS DAY,Holiday,InputFile,02/20,  1
Environment:Special Days,MEMORIAL DAY,Holiday,InputFile,05/29,  1
Environment:Special Days,LABOR DAY,Holiday,InputFile,09/04,  1
Environment:Special Days,COLUMBUS DAY,Holiday,InputFile,10/09,  1
Environment:Special Days,THANKSGIVING,Holiday,InputFile,11/23,  1
Environment:WarmupDays,  6
! <Warmup Convergence Information>,Zone Name,Environment Type/Name,Average Warmup Temperature Difference {deltaC},Std Dev Warmup Temperature Difference {deltaC},Max Temperature Pass/Fail Convergence,Min Temperature Pass/Fail Convergence,Average Warmup Load Difference {W},Std Dev Warmup Load Difference {W},Heating Load Pass/Fail Convergence,Cooling Load Pass/Fail Convergence
 Warmup Convergence Information,AUDITORIUM_ZN_1_FLR_1,RunPeriod: RUNPERIOD 1,0.3133505261,0.3473445804,Pass,Pass,0.6235883551,0.7388207960,Pass,Pass
 Warmup Convergence Information,AUX_GYM_ZN_1_FLR_1,RunPeriod: RUNPERIOD 1,0.3076719149,0.3436296881,Pass,Pass,0.4302515439,0.4788264208,Pass,Pass
 Warmup Convergence Information,BATHROOMS_ZN_1_FLR_1,RunPeriod: RUNPERIOD 1,0.4387586911,0.5210299159,Pass,Pass,0.4950547779,0.4855407256,Pass,Pass
 Warmup Convergence Information,BATHROOMS_ZN_1_FLR_2,RunPeriod: RUNPERIOD 1,0.7610629246,0.7752219208,Pass,Pass,0.5271284104,0.4784281147,Pass,Pass
 Warmup Convergence Information,CAFETERIA_ZN_1_FLR_1,RunPeriod: RUNPERIOD 1,0.1722531700,0.2894241295,Pass,Pass,0.2515184990,0.4290070065,Pass,Pass
 Warmup Convergence Information,CORNER_CLASS_1_POD_1_ZN_1_FLR_1,RunPeriod: RUNPERIOD 1,0.5211896881,0.7245807260,Pass,Pass,0.5087702859,0.5204501983,Pass,Pass
 Warmup Convergence Information,CORNER_CLASS_1_POD_1_ZN_1_FLR_2,RunPeriod: RUNPERIOD 1,0.8273485255,0.9396178083,Pass,Pass,0.5031590712,0.4797594701,Pass,Pass
 Warmup Convergence Information,CORNER_CLASS_1_POD_2_ZN_1_FLR_1,RunPeriod: RUNPERIOD 1,0.5507194286,0.7340704965,Pass,Pass,0.5006439312,0.5145161520,Pass,Pass
 Warmup Convergence Information,CORNER_CLASS_1_POD_2_ZN_1_FLR_2,RunPeriod: RUNPERIOD 1,0.8369628132,0.9432513927,Pass,Pass,0.5037013282,0.4796888824,Pass,Pass
 Warmup Convergence Information,CORNER_CLASS_1_POD_3_ZN_1_FLR_1,RunPeriod: RUNPERIOD 1,0.5464744077,0.7324207975,Pass,Pass,0.5000664489,0.5075993792,Pass,Pass
 Warmup Convergence Information,CORNER_CLASS_1_POD_3_ZN_1_FLR_2,RunPeriod: RUNPERIOD 1,0.8364282843,0.9421877746,Pass,Pass,0.5035072850,0.4793498861,Pass,Pass
 Warmup Convergence Information,CORNER_CLASS_2_POD_1_ZN_1_FLR_1,RunPeriod: RUNPERIOD 1,0.6764046826,0.7524819537,Pass,Pass,0.4939955153,0.4845789005,Pass,Pass
 Warmup Convergence Information,CORNER_CLASS_2_POD_1_ZN_1_FLR_2,RunPeriod: RUNPERIOD 1,0.9939687007,0.9866172389,Pass,Pass,0.5140788483,0.4746184170,Pass,Pass
 Warmup Convergence Information,CORNER_CLASS_2_POD_2_ZN_1_FLR_1,RunPeriod: RUNPERIOD 1,0.6793962003,0.7550672427,Pass,Pass,0.4943150248,0.4845111407,Pass,Pass
 Warmup Convergence Information,CORNER_CLASS_2_POD_2_ZN_1_FLR_2,RunPeriod: RUNPERIOD 1,0.9952755687,0.9892181524,Pass,Pass,0.5145910335,0.4747354266,Pass,Pass
 Warmup Convergence Information,CORNER_CLASS_2_POD_3_ZN_1_FLR_1,RunPeriod: RUNPERIOD 1,0.6792453214,0.7552188102,Pass,Pass,0.4942857935,0.4844211374,Pass,Pass
 Warmup Convergence Information,CORNER_CLASS_2_POD_3_ZN_1_FLR_2,RunPeriod: RUNPERIOD 1,0.9954519053,0.9898993530,Pass,Pass,0.5143847201,0.4747026858,Pass,Pass
 Warmup Convergence Information,CORRIDOR_POD_1_ZN_1_FLR_1,RunPeriod: RUNPERIOD 1,8.2273165094E-002,0.1172609980,Pass,Pass,0.5139760473,0.5274223016,Pass,Pass
 Warmup Convergence Information,CORRIDOR_POD_1_ZN_1_FLR_2,RunPeriod: RUNPERIOD 1,0.2338405917,0.2388816621,Pass,Pass,0.5203650558,0.4882988007,Pass,Pass
 Warmup Convergence Information,CORRIDOR_POD_2_ZN_1_FLR_1,RunPeriod: RUNPERIOD 1,7.3954060433E-002,0.1034930188,Pass,Pass,0.5682326174,0.7425442329,Pass,Pass
 Warmup Convergence Information,CORRIDOR_POD_2_ZN_1_FLR_2,RunPeriod: RUNPERIOD 1,0.2427769543,0.2416937697,Pass,Pass,0.5164652588,0.4875000109,Pass,Pass
 Warmup Convergence Information,CORRIDOR_POD_3_ZN_1_FLR_1,RunPeriod: RUNPERIOD 1,7.1221125372E-002,9.9108395989E-002,Pass,Pass,0.6128971364,1.4724315587,Pass,Pass
 Warmup Convergence Information,CORRIDOR_POD_3_ZN_1_FLR_2,RunPeriod: RUNPERIOD 1,0.2407829706,0.2391730207,Pass,Pass,0.5170346382,0.4872942482,Pass,Pass
 Warmup Convergence Information,GYM_ZN_1_FLR_1,RunPeriod: RUNPERIOD 1,0.1329384292,0.1443045226,Pass,Pass,0.2556461656,0.5253934996,Pass,Pass
 Warmup Convergence Information,KITCHEN_ZN_1_FLR_1,RunPeriod: RUNPERIOD 1,6.2515880155E-002,0.1182991727,Pass,Pass,0.1093724380,0.4330732544,Pass,Pass
 Warmup Convergence Information,LIBRARY_MEDIA_CENTER_ZN_1_FLR_2,RunPeriod: RUNPERIOD 1,0.3907479653,0.4391369766,Pass,Pass,0.5257305431,0.4810068932,Pass,Pass
 Warmup Convergence Information,LOBBY_ZN_1_FLR_1,RunPeriod: RUNPERIOD 1,0.1309707814,0.2029691577,Pass,Pass,0.5058698942,0.4963380221,Pass,Pass
 Warmup Convergence Information,LOBBY_ZN_1_FLR_2,RunPeriod: RUNPERIOD 1,0.3585699328,0.4697542024,Pass,Pass,0.5373757385,0.6111851192,Pass,Pass
 Warmup Convergence Information,MAIN_CORRIDOR_ZN_1_FLR_1,RunPeriod: RUNPERIOD 1,6.9500710265E-002,8.3772549293E-002,Pass,Pass,0.5213552294,0.5336008001,Pass,Pass
 Warmup Convergence Information,MAIN_CORRIDOR_ZN_1_FLR_2,RunPeriod: RUNPERIOD 1,0.3262320374,0.3633686259,Pass,Pass,0.5268298656,0.4789361306,Pass,Pass
 Warmup Convergence Information,MECH_ZN_1_FLR_1,RunPeriod: RUNPERIOD 1,9.5451313805E-002,7.6567723388E-002,Pass,Pass,0.5158162523,0.5265032963,Pass,Pass
 Warmup Convergence Information,MECH_ZN_1_FLR_2,RunPeriod: RUNPERIOD 1,8.4218655048E-002,9.0160859534E-002,Pass,Pass,0.5151888345,0.4945164284,Pass,Pass
 Warmup Convergence Information,MULT_CLASS_1_POD_1_ZN_1_FLR_1,RunPeriod: RUNPERIOD 1,0.2144018322,0.3596431177,Pass,Pass,1.0463276182,5.7546580206,Pass,Pass
 Warmup Convergence Information,MULT_CLASS_1_POD_1_ZN_1_FLR_2,RunPeriod: RUNPERIOD 1,0.4256048147,0.5784367255,Pass,Pass,0.5212070986,0.5143519718,Pass,Pass
 Warmup Convergence Information,MULT_CLASS_1_POD_2_ZN_1_FLR_1,RunPeriod: RUNPERIOD 1,0.2162065538,0.3553849576,Pass,Pass,0.6029747938,0.9050576804,Pass,Pass
 Warmup Convergence Information,MULT_CLASS_1_POD_2_ZN_1_FLR_2,RunPeriod: RUNPERIOD 1,0.4408460331,0.5858893733,Pass,Pass,0.5133256116,0.4885942756,Pass,Pass
 Warmup Convergence Information,MULT_CLASS_1_POD_3_ZN_1_FLR_1,RunPeriod: RUNPERIOD 1,0.2147449706,0.3535527256,Pass,Pass,0.5775969630,0.7858405821,Pass,Pass
 Warmup Convergence Information,MULT_CLASS_1_POD_3_ZN_1_FLR_2,RunPeriod: RUNPERIOD 1,0.4401081393,0.5853864794,Pass,Pass,0.5117883427,0.4884229142,Pass,Pass
 Warmup Convergence Information,MULT_CLASS_2_POD_1_ZN_1_FLR_1,RunPeriod: RUNPERIOD 1,0.2731785615,0.3822556379,Pass,Pass,0.5013319697,0.4872101344,Pass,Pass
 Warmup Convergence Information,MULT_CLASS_2_POD_1_ZN_1_FLR_2,RunPeriod: RUNPERIOD 1,0.5972818065,0.6386552421,Pass,Pass,0.5310177230,0.4841688630,Pass,Pass
 Warmup Convergence Information,MULT_CLASS_2_POD_2_ZN_1_FLR_1,RunPeriod: RUNPERIOD 1,0.2770907399,0.3841857841,Pass,Pass,0.5006328090,0.4873120902,Pass,Pass
 Warmup Convergence Information,MULT_CLASS_2_POD_2_ZN_1_FLR_2,RunPeriod: RUNPERIOD 1,0.5990617813,0.6414519743,Pass,Pass,0.5314818491,0.4844427194,Pass,Pass
 Warmup Convergence Information,MULT_CLASS_2_POD_3_ZN_1_FLR_1,RunPeriod: RUNPERIOD 1,0.2792255541,0.3884019771,Pass,Pass,0.5005858092,0.4871826851,Pass,Pass
 Warmup Convergence Information,MULT_CLASS_2_POD_3_ZN_1_FLR_2,RunPeriod: RUNPERIOD 1,0.6015066903,0.6438150116,Pass,Pass,0.5324454510,0.4847115231,Pass,Pass
 Warmup Convergence Information,OFFICES_ZN_1_FLR_1,RunPeriod: RUNPERIOD 1,0.1794079613,0.2962026961,Pass,Pass,0.5078024942,0.4958204621,Pass,Pass
 Warmup Convergence Information,OFFICES_ZN_1_FLR_2,RunPeriod: RUNPERIOD 1,0.3885595842,0.5178958895,Pass,Pass,1.3190413128,9.2558247303,Pass,Pass
! <Program Control Information:Threads/Parallel Sims>, Threading Supported,Maximum Number of Threads, Env Set Threads (OMP_NUM_THREADS), EP Env Set Threads (EP_OMP_NUM_THREADS), IDF Set Threads, Number of Threads Used (Interior Radiant Exchange), Number Nominal Surfaces, Number Parallel Sims
Program Control:Threads/Parallel Sims, No,1, N/A, N/A, N/A, N/A, N/A, N/A
End of Data
