Program Version,EnergyPlus, Version 9.2.0-921312fa1d, YMD=2020.12.22 18:01
! This file shows details about the branches, nodes, and other
! elements of the flow connections.
! This file is intended for use in "debugging" potential problems
! that may also be detected by the program, but may be more easily
! identified by "eye".
! This file is also intended to support software which draws a
! schematic diagram of the HVAC system.
! ===============================================================
! #Nodes,<Number of Unique Nodes>
 #Nodes,120
! <Node>,<NodeNumber>,<Node Name>,<Node Fluid Type>,<# Times Node Referenced After Definition>
 Node,1,LGSTORE1 DIRECT AIR INLET NODE NAME,Air,4
 Node,2,LGSTORE2 DIRECT AIR INLET NODE NAME,Air,4
 Node,3,PSZ-AC_10:10_OAINLET NODE,Air,3
 Node,4,PSZ-AC_1:1_OAINLET NODE,Air,3
 Node,5,PSZ-AC_2:2_OAINLET NODE,Air,3
 Node,6,PSZ-AC_3:3_OAINLET NODE,Air,3
 Node,7,PSZ-AC_4:4_OAINLET NODE,Air,3
 Node,8,PSZ-AC_5:5_OAINLET NODE,Air,3
 Node,9,PSZ-AC_6:6_OAINLET NODE,Air,3
 Node,10,PSZ-AC_7:7_OAINLET NODE,Air,3
 Node,11,PSZ-AC_8:8_OAINLET NODE,Air,3
 Node,12,PSZ-AC_9:9_OAINLET NODE,Air,3
 Node,13,SMSTORE1 DIRECT AIR INLET NODE NAME,Air,4
 Node,14,SMSTORE2 DIRECT AIR INLET NODE NAME,Air,4
 Node,15,SMSTORE3 DIRECT AIR INLET NODE NAME,Air,4
 Node,16,SMSTORE4 DIRECT AIR INLET NODE NAME,Air,4
 Node,17,SMSTORE5 DIRECT AIR INLET NODE NAME,Air,4
 Node,18,SMSTORE6 DIRECT AIR INLET NODE NAME,Air,4
 Node,19,SMSTORE7 DIRECT AIR INLET NODE NAME,Air,4
 Node,20,SMSTORE8 DIRECT AIR INLET NODE NAME,Air,4
 Node,21,PSZ-AC_10:10 SUPPLY EQUIPMENT INLET NODE,Air,3
 Node,22,PSZ-AC_10:10_OA-PSZ-AC_10:10_UNITARY_PACKAGENODE,Air,7
 Node,23,PSZ-AC_10:10 SUPPLY EQUIPMENT OUTLET NODE,Air,5
 Node,24,PSZ-AC_1:1 SUPPLY EQUIPMENT INLET NODE,Air,3
 Node,25,PSZ-AC_1:1_OA-PSZ-AC_1:1_UNITARY_PACKAGENODE,Air,7
 Node,26,PSZ-AC_1:1 SUPPLY EQUIPMENT OUTLET NODE,Air,5
 Node,27,PSZ-AC_2:2 SUPPLY EQUIPMENT INLET NODE,Air,3
 Node,28,PSZ-AC_2:2_OA-PSZ-AC_2:2_UNITARY_PACKAGENODE,Air,7
 Node,29,PSZ-AC_2:2 SUPPLY EQUIPMENT OUTLET NODE,Air,5
 Node,30,PSZ-AC_3:3 SUPPLY EQUIPMENT INLET NODE,Air,3
 Node,31,PSZ-AC_3:3_OA-PSZ-AC_3:3_UNITARY_PACKAGENODE,Air,7
 Node,32,PSZ-AC_3:3 SUPPLY EQUIPMENT OUTLET NODE,Air,5
 Node,33,PSZ-AC_4:4 SUPPLY EQUIPMENT INLET NODE,Air,3
 Node,34,PSZ-AC_4:4_OA-PSZ-AC_4:4_UNITARY_PACKAGENODE,Air,7
 Node,35,PSZ-AC_4:4 SUPPLY EQUIPMENT OUTLET NODE,Air,5
 Node,36,PSZ-AC_5:5 SUPPLY EQUIPMENT INLET NODE,Air,3
 Node,37,PSZ-AC_5:5_OA-PSZ-AC_5:5_UNITARY_PACKAGENODE,Air,7
 Node,38,PSZ-AC_5:5 SUPPLY EQUIPMENT OUTLET NODE,Air,5
 Node,39,PSZ-AC_6:6 SUPPLY EQUIPMENT INLET NODE,Air,3
 Node,40,PSZ-AC_6:6_OA-PSZ-AC_6:6_UNITARY_PACKAGENODE,Air,7
 Node,41,PSZ-AC_6:6 SUPPLY EQUIPMENT OUTLET NODE,Air,5
 Node,42,PSZ-AC_7:7 SUPPLY EQUIPMENT INLET NODE,Air,3
 Node,43,PSZ-AC_7:7_OA-PSZ-AC_7:7_UNITARY_PACKAGENODE,Air,7
 Node,44,PSZ-AC_7:7 SUPPLY EQUIPMENT OUTLET NODE,Air,5
 Node,45,PSZ-AC_8:8 SUPPLY EQUIPMENT INLET NODE,Air,3
 Node,46,PSZ-AC_8:8_OA-PSZ-AC_8:8_UNITARY_PACKAGENODE,Air,7
 Node,47,PSZ-AC_8:8 SUPPLY EQUIPMENT OUTLET NODE,Air,5
 Node,48,PSZ-AC_9:9 SUPPLY EQUIPMENT INLET NODE,Air,3
 Node,49,PSZ-AC_9:9_OA-PSZ-AC_9:9_UNITARY_PACKAGENODE,Air,7
 Node,50,PSZ-AC_9:9 SUPPLY EQUIPMENT OUTLET NODE,Air,5
 Node,51,LGSTORE1 AIR NODE,Air,1
 Node,52,LGSTORE1 RETURN AIR NODE NAME,Air,1
 Node,53,LGSTORE2 AIR NODE,Air,1
 Node,54,LGSTORE2 RETURN AIR NODE NAME,Air,1
 Node,55,SMSTORE1 AIR NODE,Air,1
 Node,56,SMSTORE1 RETURN AIR NODE NAME,Air,1
 Node,57,SMSTORE2 AIR NODE,Air,1
 Node,58,SMSTORE2 RETURN AIR NODE NAME,Air,1
 Node,59,SMSTORE3 AIR NODE,Air,1
 Node,60,SMSTORE3 RETURN AIR NODE NAME,Air,1
 Node,61,SMSTORE4 AIR NODE,Air,1
 Node,62,SMSTORE4 RETURN AIR NODE NAME,Air,1
 Node,63,SMSTORE5 AIR NODE,Air,1
 Node,64,SMSTORE5 RETURN AIR NODE NAME,Air,1
 Node,65,SMSTORE6 AIR NODE,Air,1
 Node,66,SMSTORE6 RETURN AIR NODE NAME,Air,1
 Node,67,SMSTORE7 AIR NODE,Air,1
 Node,68,SMSTORE7 RETURN AIR NODE NAME,Air,1
 Node,69,SMSTORE8 AIR NODE,Air,1
 Node,70,SMSTORE8 RETURN AIR NODE NAME,Air,1
 Node,71,PSZ-AC_10:10 ZONE EQUIPMENT INLET NODE,Air,2
 Node,72,PSZ-AC_1:1 ZONE EQUIPMENT INLET NODE,Air,2
 Node,73,PSZ-AC_2:2 ZONE EQUIPMENT INLET NODE,Air,2
 Node,74,PSZ-AC_3:3 ZONE EQUIPMENT INLET NODE,Air,2
 Node,75,PSZ-AC_4:4 ZONE EQUIPMENT INLET NODE,Air,2
 Node,76,PSZ-AC_5:5 ZONE EQUIPMENT INLET NODE,Air,2
 Node,77,PSZ-AC_6:6 ZONE EQUIPMENT INLET NODE,Air,2
 Node,78,PSZ-AC_7:7 ZONE EQUIPMENT INLET NODE,Air,2
 Node,79,PSZ-AC_8:8 ZONE EQUIPMENT INLET NODE,Air,2
 Node,80,PSZ-AC_9:9 ZONE EQUIPMENT INLET NODE,Air,2
 Node,81,PSZ-AC_10:10 ZONE EQUIPMENT OUTLET NODE,Air,2
 Node,82,PSZ-AC_1:1 ZONE EQUIPMENT OUTLET NODE,Air,2
 Node,83,PSZ-AC_2:2 ZONE EQUIPMENT OUTLET NODE,Air,2
 Node,84,PSZ-AC_3:3 ZONE EQUIPMENT OUTLET NODE,Air,2
 Node,85,PSZ-AC_4:4 ZONE EQUIPMENT OUTLET NODE,Air,2
 Node,86,PSZ-AC_5:5 ZONE EQUIPMENT OUTLET NODE,Air,2
 Node,87,PSZ-AC_6:6 ZONE EQUIPMENT OUTLET NODE,Air,2
 Node,88,PSZ-AC_7:7 ZONE EQUIPMENT OUTLET NODE,Air,2
 Node,89,PSZ-AC_8:8 ZONE EQUIPMENT OUTLET NODE,Air,2
 Node,90,PSZ-AC_9:9 ZONE EQUIPMENT OUTLET NODE,Air,2
 Node,91,PSZ-AC_10:10_UNITARY_PACKAGEHEATCOIL AIR INLET,Air,2
 Node,92,PSZ-AC_1:1_UNITARY_PACKAGEHEATCOIL AIR INLET,Air,2
 Node,93,PSZ-AC_2:2_UNITARY_PACKAGEHEATCOIL AIR INLET,Air,2
 Node,94,PSZ-AC_3:3_UNITARY_PACKAGEHEATCOIL AIR INLET,Air,2
 Node,95,PSZ-AC_4:4_UNITARY_PACKAGEHEATCOIL AIR INLET,Air,2
 Node,96,PSZ-AC_5:5_UNITARY_PACKAGEHEATCOIL AIR INLET,Air,2
 Node,97,PSZ-AC_6:6_UNITARY_PACKAGEHEATCOIL AIR INLET,Air,2
 Node,98,PSZ-AC_7:7_UNITARY_PACKAGEHEATCOIL AIR INLET,Air,2
 Node,99,PSZ-AC_8:8_UNITARY_PACKAGEHEATCOIL AIR INLET,Air,2
 Node,100,PSZ-AC_9:9_UNITARY_PACKAGEHEATCOIL AIR INLET,Air,2
 Node,101,PSZ-AC_10:10_OARELIEF NODE,Air,1
 Node,102,PSZ-AC_1:1_OARELIEF NODE,Air,1
 Node,103,PSZ-AC_2:2_OARELIEF NODE,Air,1
 Node,104,PSZ-AC_3:3_OARELIEF NODE,Air,1
 Node,105,PSZ-AC_4:4_OARELIEF NODE,Air,1
 Node,106,PSZ-AC_5:5_OARELIEF NODE,Air,1
 Node,107,PSZ-AC_6:6_OARELIEF NODE,Air,1
 Node,108,PSZ-AC_7:7_OARELIEF NODE,Air,1
 Node,109,PSZ-AC_8:8_OARELIEF NODE,Air,1
 Node,110,PSZ-AC_9:9_OARELIEF NODE,Air,1
 Node,111,PSZ-AC_10:10_UNITARY_PACKAGECOOLCOIL AIR INLET,Air,1
 Node,112,PSZ-AC_1:1_UNITARY_PACKAGECOOLCOIL AIR INLET,Air,1
 Node,113,PSZ-AC_2:2_UNITARY_PACKAGECOOLCOIL AIR INLET,Air,1
 Node,114,PSZ-AC_3:3_UNITARY_PACKAGECOOLCOIL AIR INLET,Air,1
 Node,115,PSZ-AC_4:4_UNITARY_PACKAGECOOLCOIL AIR INLET,Air,1
 Node,116,PSZ-AC_5:5_UNITARY_PACKAGECOOLCOIL AIR INLET,Air,1
 Node,117,PSZ-AC_6:6_UNITARY_PACKAGECOOLCOIL AIR INLET,Air,1
 Node,118,PSZ-AC_7:7_UNITARY_PACKAGECOOLCOIL AIR INLET,Air,1
 Node,119,PSZ-AC_8:8_UNITARY_PACKAGECOOLCOIL AIR INLET,Air,1
 Node,120,PSZ-AC_9:9_UNITARY_PACKAGECOOLCOIL AIR INLET,Air,1
! ===============================================================
! <#Branch Lists>,<Number of Branch Lists>
 #Branch Lists,10
! <Branch List>,<Branch List Count>,<Branch List Name>,<Loop Name>,<Loop Type>,<Number of Branches>
! <Branch>,<Branch Count>,<Branch Name>,<Loop Name>,<Loop Type>,<Branch Inlet Node Name>,<Branch Outlet Node Name>
 Branch List,1,PSZ-AC_10:10 AIR LOOP BRANCHES,PSZ-AC_10:10,Air,1
   Branch,1,PSZ-AC_10:10 AIR LOOP MAIN BRANCH,PSZ-AC_10:10,Air,PSZ-AC_10:10 SUPPLY EQUIPMENT INLET NODE,PSZ-AC_10:10 SUPPLY EQUIPMENT OUTLET NODE
 Branch List,2,PSZ-AC_1:1 AIR LOOP BRANCHES,PSZ-AC_1:1,Air,1
   Branch,1,PSZ-AC_1:1 AIR LOOP MAIN BRANCH,PSZ-AC_1:1,Air,PSZ-AC_1:1 SUPPLY EQUIPMENT INLET NODE,PSZ-AC_1:1 SUPPLY EQUIPMENT OUTLET NODE
 Branch List,3,PSZ-AC_2:2 AIR LOOP BRANCHES,PSZ-AC_2:2,Air,1
   Branch,1,PSZ-AC_2:2 AIR LOOP MAIN BRANCH,PSZ-AC_2:2,Air,PSZ-AC_2:2 SUPPLY EQUIPMENT INLET NODE,PSZ-AC_2:2 SUPPLY EQUIPMENT OUTLET NODE
 Branch List,4,PSZ-AC_3:3 AIR LOOP BRANCHES,PSZ-AC_3:3,Air,1
   Branch,1,PSZ-AC_3:3 AIR LOOP MAIN BRANCH,PSZ-AC_3:3,Air,PSZ-AC_3:3 SUPPLY EQUIPMENT INLET NODE,PSZ-AC_3:3 SUPPLY EQUIPMENT OUTLET NODE
 Branch List,5,PSZ-AC_4:4 AIR LOOP BRANCHES,PSZ-AC_4:4,Air,1
   Branch,1,PSZ-AC_4:4 AIR LOOP MAIN BRANCH,PSZ-AC_4:4,Air,PSZ-AC_4:4 SUPPLY EQUIPMENT INLET NODE,PSZ-AC_4:4 SUPPLY EQUIPMENT OUTLET NODE
 Branch List,6,PSZ-AC_5:5 AIR LOOP BRANCHES,PSZ-AC_5:5,Air,1
   Branch,1,PSZ-AC_5:5 AIR LOOP MAIN BRANCH,PSZ-AC_5:5,Air,PSZ-AC_5:5 SUPPLY EQUIPMENT INLET NODE,PSZ-AC_5:5 SUPPLY EQUIPMENT OUTLET NODE
 Branch List,7,PSZ-AC_6:6 AIR LOOP BRANCHES,PSZ-AC_6:6,Air,1
   Branch,1,PSZ-AC_6:6 AIR LOOP MAIN BRANCH,PSZ-AC_6:6,Air,PSZ-AC_6:6 SUPPLY EQUIPMENT INLET NODE,PSZ-AC_6:6 SUPPLY EQUIPMENT OUTLET NODE
 Branch List,8,PSZ-AC_7:7 AIR LOOP BRANCHES,PSZ-AC_7:7,Air,1
   Branch,1,PSZ-AC_7:7 AIR LOOP MAIN BRANCH,PSZ-AC_7:7,Air,PSZ-AC_7:7 SUPPLY EQUIPMENT INLET NODE,PSZ-AC_7:7 SUPPLY EQUIPMENT OUTLET NODE
 Branch List,9,PSZ-AC_8:8 AIR LOOP BRANCHES,PSZ-AC_8:8,Air,1
   Branch,1,PSZ-AC_8:8 AIR LOOP MAIN BRANCH,PSZ-AC_8:8,Air,PSZ-AC_8:8 SUPPLY EQUIPMENT INLET NODE,PSZ-AC_8:8 SUPPLY EQUIPMENT OUTLET NODE
 Branch List,10,PSZ-AC_9:9 AIR LOOP BRANCHES,PSZ-AC_9:9,Air,1
   Branch,1,PSZ-AC_9:9 AIR LOOP MAIN BRANCH,PSZ-AC_9:9,Air,PSZ-AC_9:9 SUPPLY EQUIPMENT INLET NODE,PSZ-AC_9:9 SUPPLY EQUIPMENT OUTLET NODE
! ===============================================================
! <#Supply Air Paths>,<Number of Supply Air Paths>
 #Supply Air Paths,10
! <Supply Air Path>,<Supply Air Path Count>,<Supply Air Path Name>,<AirLoopHVAC Name>
! <#Components on Supply Air Path>,<Number of Components>
! <Supply Air Path Component>,<Component Count>,<Component Type>,<Component Name>,<AirLoopHVAC Name>
! <#Outlet Nodes on Supply Air Path Component>,<Number of Nodes>
! <Supply Air Path Component Nodes>,<Node Count>,<Component Type>,<Component Name>,<Inlet Node Name>,<Outlet Node Name>,<AirLoopHVAC Name>
 Supply Air Path,1,PSZ-AC_10:10,PSZ-AC_10:10
   #Components on Supply Air Path,1
   Supply Air Path Component,1,AIRLOOPHVAC:ZONESPLITTER,PSZ-AC_10:10 SUPPLY AIR SPLITTER,PSZ-AC_10:10
     #Outlet Nodes on Supply Air Path Component,1
     Supply Air Path Component Nodes,1,AIRLOOPHVAC:ZONESPLITTER,PSZ-AC_10:10 SUPPLY AIR SPLITTER,PSZ-AC_10:10 ZONE EQUIPMENT INLET NODE,SMSTORE8 DIRECT AIR INLET NODE NAME,PSZ-AC_10:10
! <#Nodes on Supply Air Path>,<Number of Nodes>
! <Supply Air Path Node>,<Node Type>,<Node Count>,<Node Name>,<AirLoopHVAC Name>
#Nodes on Supply Air Path,2
   Supply Air Path Node,Inlet Node,1,PSZ-AC_10:10 ZONE EQUIPMENT INLET NODE,PSZ-AC_10:10
   Supply Air Path Node,Outlet Node,2,SMSTORE8 DIRECT AIR INLET NODE NAME,PSZ-AC_10:10
 Supply Air Path,2,PSZ-AC_1:1,PSZ-AC_1:1
   #Components on Supply Air Path,1
   Supply Air Path Component,1,AIRLOOPHVAC:ZONESPLITTER,PSZ-AC_1:1 SUPPLY AIR SPLITTER,PSZ-AC_1:1
     #Outlet Nodes on Supply Air Path Component,1
     Supply Air Path Component Nodes,1,AIRLOOPHVAC:ZONESPLITTER,PSZ-AC_1:1 SUPPLY AIR SPLITTER,PSZ-AC_1:1 ZONE EQUIPMENT INLET NODE,LGSTORE1 DIRECT AIR INLET NODE NAME,PSZ-AC_1:1
! <#Nodes on Supply Air Path>,<Number of Nodes>
! <Supply Air Path Node>,<Node Type>,<Node Count>,<Node Name>,<AirLoopHVAC Name>
#Nodes on Supply Air Path,2
   Supply Air Path Node,Inlet Node,1,PSZ-AC_1:1 ZONE EQUIPMENT INLET NODE,PSZ-AC_1:1
   Supply Air Path Node,Outlet Node,2,LGSTORE1 DIRECT AIR INLET NODE NAME,PSZ-AC_1:1
 Supply Air Path,3,PSZ-AC_2:2,PSZ-AC_2:2
   #Components on Supply Air Path,1
   Supply Air Path Component,1,AIRLOOPHVAC:ZONESPLITTER,PSZ-AC_2:2 SUPPLY AIR SPLITTER,PSZ-AC_2:2
     #Outlet Nodes on Supply Air Path Component,1
     Supply Air Path Component Nodes,1,AIRLOOPHVAC:ZONESPLITTER,PSZ-AC_2:2 SUPPLY AIR SPLITTER,PSZ-AC_2:2 ZONE EQUIPMENT INLET NODE,SMSTORE1 DIRECT AIR INLET NODE NAME,PSZ-AC_2:2
! <#Nodes on Supply Air Path>,<Number of Nodes>
! <Supply Air Path Node>,<Node Type>,<Node Count>,<Node Name>,<AirLoopHVAC Name>
#Nodes on Supply Air Path,2
   Supply Air Path Node,Inlet Node,1,PSZ-AC_2:2 ZONE EQUIPMENT INLET NODE,PSZ-AC_2:2
   Supply Air Path Node,Outlet Node,2,SMSTORE1 DIRECT AIR INLET NODE NAME,PSZ-AC_2:2
 Supply Air Path,4,PSZ-AC_3:3,PSZ-AC_3:3
   #Components on Supply Air Path,1
   Supply Air Path Component,1,AIRLOOPHVAC:ZONESPLITTER,PSZ-AC_3:3 SUPPLY AIR SPLITTER,PSZ-AC_3:3
     #Outlet Nodes on Supply Air Path Component,1
     Supply Air Path Component Nodes,1,AIRLOOPHVAC:ZONESPLITTER,PSZ-AC_3:3 SUPPLY AIR SPLITTER,PSZ-AC_3:3 ZONE EQUIPMENT INLET NODE,SMSTORE2 DIRECT AIR INLET NODE NAME,PSZ-AC_3:3
! <#Nodes on Supply Air Path>,<Number of Nodes>
! <Supply Air Path Node>,<Node Type>,<Node Count>,<Node Name>,<AirLoopHVAC Name>
#Nodes on Supply Air Path,2
   Supply Air Path Node,Inlet Node,1,PSZ-AC_3:3 ZONE EQUIPMENT INLET NODE,PSZ-AC_3:3
   Supply Air Path Node,Outlet Node,2,SMSTORE2 DIRECT AIR INLET NODE NAME,PSZ-AC_3:3
 Supply Air Path,5,PSZ-AC_4:4,PSZ-AC_4:4
   #Components on Supply Air Path,1
   Supply Air Path Component,1,AIRLOOPHVAC:ZONESPLITTER,PSZ-AC_4:4 SUPPLY AIR SPLITTER,PSZ-AC_4:4
     #Outlet Nodes on Supply Air Path Component,1
     Supply Air Path Component Nodes,1,AIRLOOPHVAC:ZONESPLITTER,PSZ-AC_4:4 SUPPLY AIR SPLITTER,PSZ-AC_4:4 ZONE EQUIPMENT INLET NODE,SMSTORE3 DIRECT AIR INLET NODE NAME,PSZ-AC_4:4
! <#Nodes on Supply Air Path>,<Number of Nodes>
! <Supply Air Path Node>,<Node Type>,<Node Count>,<Node Name>,<AirLoopHVAC Name>
#Nodes on Supply Air Path,2
   Supply Air Path Node,Inlet Node,1,PSZ-AC_4:4 ZONE EQUIPMENT INLET NODE,PSZ-AC_4:4
   Supply Air Path Node,Outlet Node,2,SMSTORE3 DIRECT AIR INLET NODE NAME,PSZ-AC_4:4
 Supply Air Path,6,PSZ-AC_5:5,PSZ-AC_5:5
   #Components on Supply Air Path,1
   Supply Air Path Component,1,AIRLOOPHVAC:ZONESPLITTER,PSZ-AC_5:5 SUPPLY AIR SPLITTER,PSZ-AC_5:5
     #Outlet Nodes on Supply Air Path Component,1
     Supply Air Path Component Nodes,1,AIRLOOPHVAC:ZONESPLITTER,PSZ-AC_5:5 SUPPLY AIR SPLITTER,PSZ-AC_5:5 ZONE EQUIPMENT INLET NODE,SMSTORE4 DIRECT AIR INLET NODE NAME,PSZ-AC_5:5
! <#Nodes on Supply Air Path>,<Number of Nodes>
! <Supply Air Path Node>,<Node Type>,<Node Count>,<Node Name>,<AirLoopHVAC Name>
#Nodes on Supply Air Path,2
   Supply Air Path Node,Inlet Node,1,PSZ-AC_5:5 ZONE EQUIPMENT INLET NODE,PSZ-AC_5:5
   Supply Air Path Node,Outlet Node,2,SMSTORE4 DIRECT AIR INLET NODE NAME,PSZ-AC_5:5
 Supply Air Path,7,PSZ-AC_6:6,PSZ-AC_6:6
   #Components on Supply Air Path,1
   Supply Air Path Component,1,AIRLOOPHVAC:ZONESPLITTER,PSZ-AC_6:6 SUPPLY AIR SPLITTER,PSZ-AC_6:6
     #Outlet Nodes on Supply Air Path Component,1
     Supply Air Path Component Nodes,1,AIRLOOPHVAC:ZONESPLITTER,PSZ-AC_6:6 SUPPLY AIR SPLITTER,PSZ-AC_6:6 ZONE EQUIPMENT INLET NODE,LGSTORE2 DIRECT AIR INLET NODE NAME,PSZ-AC_6:6
! <#Nodes on Supply Air Path>,<Number of Nodes>
! <Supply Air Path Node>,<Node Type>,<Node Count>,<Node Name>,<AirLoopHVAC Name>
#Nodes on Supply Air Path,2
   Supply Air Path Node,Inlet Node,1,PSZ-AC_6:6 ZONE EQUIPMENT INLET NODE,PSZ-AC_6:6
   Supply Air Path Node,Outlet Node,2,LGSTORE2 DIRECT AIR INLET NODE NAME,PSZ-AC_6:6
 Supply Air Path,8,PSZ-AC_7:7,PSZ-AC_7:7
   #Components on Supply Air Path,1
   Supply Air Path Component,1,AIRLOOPHVAC:ZONESPLITTER,PSZ-AC_7:7 SUPPLY AIR SPLITTER,PSZ-AC_7:7
     #Outlet Nodes on Supply Air Path Component,1
     Supply Air Path Component Nodes,1,AIRLOOPHVAC:ZONESPLITTER,PSZ-AC_7:7 SUPPLY AIR SPLITTER,PSZ-AC_7:7 ZONE EQUIPMENT INLET NODE,SMSTORE5 DIRECT AIR INLET NODE NAME,PSZ-AC_7:7
! <#Nodes on Supply Air Path>,<Number of Nodes>
! <Supply Air Path Node>,<Node Type>,<Node Count>,<Node Name>,<AirLoopHVAC Name>
#Nodes on Supply Air Path,2
   Supply Air Path Node,Inlet Node,1,PSZ-AC_7:7 ZONE EQUIPMENT INLET NODE,PSZ-AC_7:7
   Supply Air Path Node,Outlet Node,2,SMSTORE5 DIRECT AIR INLET NODE NAME,PSZ-AC_7:7
 Supply Air Path,9,PSZ-AC_8:8,PSZ-AC_8:8
   #Components on Supply Air Path,1
   Supply Air Path Component,1,AIRLOOPHVAC:ZONESPLITTER,PSZ-AC_8:8 SUPPLY AIR SPLITTER,PSZ-AC_8:8
     #Outlet Nodes on Supply Air Path Component,1
     Supply Air Path Component Nodes,1,AIRLOOPHVAC:ZONESPLITTER,PSZ-AC_8:8 SUPPLY AIR SPLITTER,PSZ-AC_8:8 ZONE EQUIPMENT INLET NODE,SMSTORE6 DIRECT AIR INLET NODE NAME,PSZ-AC_8:8
! <#Nodes on Supply Air Path>,<Number of Nodes>
! <Supply Air Path Node>,<Node Type>,<Node Count>,<Node Name>,<AirLoopHVAC Name>
#Nodes on Supply Air Path,2
   Supply Air Path Node,Inlet Node,1,PSZ-AC_8:8 ZONE EQUIPMENT INLET NODE,PSZ-AC_8:8
   Supply Air Path Node,Outlet Node,2,SMSTORE6 DIRECT AIR INLET NODE NAME,PSZ-AC_8:8
 Supply Air Path,10,PSZ-AC_9:9,PSZ-AC_9:9
   #Components on Supply Air Path,1
   Supply Air Path Component,1,AIRLOOPHVAC:ZONESPLITTER,PSZ-AC_9:9 SUPPLY AIR SPLITTER,PSZ-AC_9:9
     #Outlet Nodes on Supply Air Path Component,1
     Supply Air Path Component Nodes,1,AIRLOOPHVAC:ZONESPLITTER,PSZ-AC_9:9 SUPPLY AIR SPLITTER,PSZ-AC_9:9 ZONE EQUIPMENT INLET NODE,SMSTORE7 DIRECT AIR INLET NODE NAME,PSZ-AC_9:9
! <#Nodes on Supply Air Path>,<Number of Nodes>
! <Supply Air Path Node>,<Node Type>,<Node Count>,<Node Name>,<AirLoopHVAC Name>
#Nodes on Supply Air Path,2
   Supply Air Path Node,Inlet Node,1,PSZ-AC_9:9 ZONE EQUIPMENT INLET NODE,PSZ-AC_9:9
   Supply Air Path Node,Outlet Node,2,SMSTORE7 DIRECT AIR INLET NODE NAME,PSZ-AC_9:9
! ===============================================================
! <#Return Air Paths>,<Number of Return Air Paths>
 #Return Air Paths,10
! <Return Air Path>,<Return Air Path Count>,<Return Air Path Name>,<AirLoopHVAC Name>
! <#Components on Return Air Path>,<Number of Components>
! <Return Air Path Component>,<Component Count>,<Component Type>,<Component Name>,<AirLoopHVAC Name>
! <#Inlet Nodes on Return Air Path Component>,<Number of Nodes>
! <Return Air Path Component Nodes>,<Node Count>,<Component Type>,<Component Name>,<Inlet Node Name>,<Outlet Node Name>,<AirLoopHVAC Name>
 Return Air Path,1,PSZ-AC_10:10 RETURN AIR PATH,PSZ-AC_10:10
   #Components on Return Air Path,1
   Return Air Path Component,1,AIRLOOPHVAC:ZONEMIXER,PSZ-AC_10:10 RETURN AIR MIXER,PSZ-AC_10:10
     #Inlet Nodes on Return Air Path Component,1
     Return Air Path Component Nodes,1,AIRLOOPHVAC:ZONEMIXER,PSZ-AC_10:10 RETURN AIR MIXER,SMSTORE8 RETURN AIR NODE NAME,PSZ-AC_10:10 ZONE EQUIPMENT OUTLET NODE,PSZ-AC_10:10
! <#Nodes on Return Air Path>,<Number of Nodes>
! <Return Air Path Node>,<Node Type>,<Node Count>,<Node Name>,<AirLoopHVAC Name>
   #Nodes on Return Air Path,2
   Return Air Path Node,Outlet Node,1,PSZ-AC_10:10 ZONE EQUIPMENT OUTLET NODE,PSZ-AC_10:10
   Return Air Path Node,Inlet Node,2,SMSTORE8 RETURN AIR NODE NAME,PSZ-AC_10:10
 Return Air Path,2,PSZ-AC_1:1 RETURN AIR PATH,PSZ-AC_1:1
   #Components on Return Air Path,1
   Return Air Path Component,1,AIRLOOPHVAC:ZONEMIXER,PSZ-AC_1:1 RETURN AIR MIXER,PSZ-AC_1:1
     #Inlet Nodes on Return Air Path Component,1
     Return Air Path Component Nodes,1,AIRLOOPHVAC:ZONEMIXER,PSZ-AC_1:1 RETURN AIR MIXER,LGSTORE1 RETURN AIR NODE NAME,PSZ-AC_1:1 ZONE EQUIPMENT OUTLET NODE,PSZ-AC_1:1
! <#Nodes on Return Air Path>,<Number of Nodes>
! <Return Air Path Node>,<Node Type>,<Node Count>,<Node Name>,<AirLoopHVAC Name>
   #Nodes on Return Air Path,2
   Return Air Path Node,Outlet Node,1,PSZ-AC_1:1 ZONE EQUIPMENT OUTLET NODE,PSZ-AC_1:1
   Return Air Path Node,Inlet Node,2,LGSTORE1 RETURN AIR NODE NAME,PSZ-AC_1:1
 Return Air Path,3,PSZ-AC_2:2 RETURN AIR PATH,PSZ-AC_2:2
   #Components on Return Air Path,1
   Return Air Path Component,1,AIRLOOPHVAC:ZONEMIXER,PSZ-AC_2:2 RETURN AIR MIXER,PSZ-AC_2:2
     #Inlet Nodes on Return Air Path Component,1
     Return Air Path Component Nodes,1,AIRLOOPHVAC:ZONEMIXER,PSZ-AC_2:2 RETURN AIR MIXER,SMSTORE1 RETURN AIR NODE NAME,PSZ-AC_2:2 ZONE EQUIPMENT OUTLET NODE,PSZ-AC_2:2
! <#Nodes on Return Air Path>,<Number of Nodes>
! <Return Air Path Node>,<Node Type>,<Node Count>,<Node Name>,<AirLoopHVAC Name>
   #Nodes on Return Air Path,2
   Return Air Path Node,Outlet Node,1,PSZ-AC_2:2 ZONE EQUIPMENT OUTLET NODE,PSZ-AC_2:2
   Return Air Path Node,Inlet Node,2,SMSTORE1 RETURN AIR NODE NAME,PSZ-AC_2:2
 Return Air Path,4,PSZ-AC_3:3 RETURN AIR PATH,PSZ-AC_3:3
   #Components on Return Air Path,1
   Return Air Path Component,1,AIRLOOPHVAC:ZONEMIXER,PSZ-AC_3:3 RETURN AIR MIXER,PSZ-AC_3:3
     #Inlet Nodes on Return Air Path Component,1
     Return Air Path Component Nodes,1,AIRLOOPHVAC:ZONEMIXER,PSZ-AC_3:3 RETURN AIR MIXER,SMSTORE2 RETURN AIR NODE NAME,PSZ-AC_3:3 ZONE EQUIPMENT OUTLET NODE,PSZ-AC_3:3
! <#Nodes on Return Air Path>,<Number of Nodes>
! <Return Air Path Node>,<Node Type>,<Node Count>,<Node Name>,<AirLoopHVAC Name>
   #Nodes on Return Air Path,2
   Return Air Path Node,Outlet Node,1,PSZ-AC_3:3 ZONE EQUIPMENT OUTLET NODE,PSZ-AC_3:3
   Return Air Path Node,Inlet Node,2,SMSTORE2 RETURN AIR NODE NAME,PSZ-AC_3:3
 Return Air Path,5,PSZ-AC_4:4 RETURN AIR PATH,PSZ-AC_4:4
   #Components on Return Air Path,1
   Return Air Path Component,1,AIRLOOPHVAC:ZONEMIXER,PSZ-AC_4:4 RETURN AIR MIXER,PSZ-AC_4:4
     #Inlet Nodes on Return Air Path Component,1
     Return Air Path Component Nodes,1,AIRLOOPHVAC:ZONEMIXER,PSZ-AC_4:4 RETURN AIR MIXER,SMSTORE3 RETURN AIR NODE NAME,PSZ-AC_4:4 ZONE EQUIPMENT OUTLET NODE,PSZ-AC_4:4
! <#Nodes on Return Air Path>,<Number of Nodes>
! <Return Air Path Node>,<Node Type>,<Node Count>,<Node Name>,<AirLoopHVAC Name>
   #Nodes on Return Air Path,2
   Return Air Path Node,Outlet Node,1,PSZ-AC_4:4 ZONE EQUIPMENT OUTLET NODE,PSZ-AC_4:4
   Return Air Path Node,Inlet Node,2,SMSTORE3 RETURN AIR NODE NAME,PSZ-AC_4:4
 Return Air Path,6,PSZ-AC_5:5 RETURN AIR PATH,PSZ-AC_5:5
   #Components on Return Air Path,1
   Return Air Path Component,1,AIRLOOPHVAC:ZONEMIXER,PSZ-AC_5:5 RETURN AIR MIXER,PSZ-AC_5:5
     #Inlet Nodes on Return Air Path Component,1
     Return Air Path Component Nodes,1,AIRLOOPHVAC:ZONEMIXER,PSZ-AC_5:5 RETURN AIR MIXER,SMSTORE4 RETURN AIR NODE NAME,PSZ-AC_5:5 ZONE EQUIPMENT OUTLET NODE,PSZ-AC_5:5
! <#Nodes on Return Air Path>,<Number of Nodes>
! <Return Air Path Node>,<Node Type>,<Node Count>,<Node Name>,<AirLoopHVAC Name>
   #Nodes on Return Air Path,2
   Return Air Path Node,Outlet Node,1,PSZ-AC_5:5 ZONE EQUIPMENT OUTLET NODE,PSZ-AC_5:5
   Return Air Path Node,Inlet Node,2,SMSTORE4 RETURN AIR NODE NAME,PSZ-AC_5:5
 Return Air Path,7,PSZ-AC_6:6 RETURN AIR PATH,PSZ-AC_6:6
   #Components on Return Air Path,1
   Return Air Path Component,1,AIRLOOPHVAC:ZONEMIXER,PSZ-AC_6:6 RETURN AIR MIXER,PSZ-AC_6:6
     #Inlet Nodes on Return Air Path Component,1
     Return Air Path Component Nodes,1,AIRLOOPHVAC:ZONEMIXER,PSZ-AC_6:6 RETURN AIR MIXER,LGSTORE2 RETURN AIR NODE NAME,PSZ-AC_6:6 ZONE EQUIPMENT OUTLET NODE,PSZ-AC_6:6
! <#Nodes on Return Air Path>,<Number of Nodes>
! <Return Air Path Node>,<Node Type>,<Node Count>,<Node Name>,<AirLoopHVAC Name>
   #Nodes on Return Air Path,2
   Return Air Path Node,Outlet Node,1,PSZ-AC_6:6 ZONE EQUIPMENT OUTLET NODE,PSZ-AC_6:6
   Return Air Path Node,Inlet Node,2,LGSTORE2 RETURN AIR NODE NAME,PSZ-AC_6:6
 Return Air Path,8,PSZ-AC_7:7 RETURN AIR PATH,PSZ-AC_7:7
   #Components on Return Air Path,1
   Return Air Path Component,1,AIRLOOPHVAC:ZONEMIXER,PSZ-AC_7:7 RETURN AIR MIXER,PSZ-AC_7:7
     #Inlet Nodes on Return Air Path Component,1
     Return Air Path Component Nodes,1,AIRLOOPHVAC:ZONEMIXER,PSZ-AC_7:7 RETURN AIR MIXER,SMSTORE5 RETURN AIR NODE NAME,PSZ-AC_7:7 ZONE EQUIPMENT OUTLET NODE,PSZ-AC_7:7
! <#Nodes on Return Air Path>,<Number of Nodes>
! <Return Air Path Node>,<Node Type>,<Node Count>,<Node Name>,<AirLoopHVAC Name>
   #Nodes on Return Air Path,2
   Return Air Path Node,Outlet Node,1,PSZ-AC_7:7 ZONE EQUIPMENT OUTLET NODE,PSZ-AC_7:7
   Return Air Path Node,Inlet Node,2,SMSTORE5 RETURN AIR NODE NAME,PSZ-AC_7:7
 Return Air Path,9,PSZ-AC_8:8 RETURN AIR PATH,PSZ-AC_8:8
   #Components on Return Air Path,1
   Return Air Path Component,1,AIRLOOPHVAC:ZONEMIXER,PSZ-AC_8:8 RETURN AIR MIXER,PSZ-AC_8:8
     #Inlet Nodes on Return Air Path Component,1
     Return Air Path Component Nodes,1,AIRLOOPHVAC:ZONEMIXER,PSZ-AC_8:8 RETURN AIR MIXER,SMSTORE6 RETURN AIR NODE NAME,PSZ-AC_8:8 ZONE EQUIPMENT OUTLET NODE,PSZ-AC_8:8
! <#Nodes on Return Air Path>,<Number of Nodes>
! <Return Air Path Node>,<Node Type>,<Node Count>,<Node Name>,<AirLoopHVAC Name>
   #Nodes on Return Air Path,2
   Return Air Path Node,Outlet Node,1,PSZ-AC_8:8 ZONE EQUIPMENT OUTLET NODE,PSZ-AC_8:8
   Return Air Path Node,Inlet Node,2,SMSTORE6 RETURN AIR NODE NAME,PSZ-AC_8:8
 Return Air Path,10,PSZ-AC_9:9 RETURN AIR PATH,PSZ-AC_9:9
   #Components on Return Air Path,1
   Return Air Path Component,1,AIRLOOPHVAC:ZONEMIXER,PSZ-AC_9:9 RETURN AIR MIXER,PSZ-AC_9:9
     #Inlet Nodes on Return Air Path Component,1
     Return Air Path Component Nodes,1,AIRLOOPHVAC:ZONEMIXER,PSZ-AC_9:9 RETURN AIR MIXER,SMSTORE7 RETURN AIR NODE NAME,PSZ-AC_9:9 ZONE EQUIPMENT OUTLET NODE,PSZ-AC_9:9
! <#Nodes on Return Air Path>,<Number of Nodes>
! <Return Air Path Node>,<Node Type>,<Node Count>,<Node Name>,<AirLoopHVAC Name>
   #Nodes on Return Air Path,2
   Return Air Path Node,Outlet Node,1,PSZ-AC_9:9 ZONE EQUIPMENT OUTLET NODE,PSZ-AC_9:9
   Return Air Path Node,Inlet Node,2,SMSTORE7 RETURN AIR NODE NAME,PSZ-AC_9:9
! ===============================================================
! #Outdoor Air Nodes,<Number of Outdoor Air Nodes>
 #Outdoor Air Nodes,10
! <Outdoor Air Node>,<NodeNumber>,<Node Name>
 Outdoor Air Node,3,PSZ-AC_10:10_OAINLET NODE
 Outdoor Air Node,4,PSZ-AC_1:1_OAINLET NODE
 Outdoor Air Node,5,PSZ-AC_2:2_OAINLET NODE
 Outdoor Air Node,6,PSZ-AC_3:3_OAINLET NODE
 Outdoor Air Node,7,PSZ-AC_4:4_OAINLET NODE
 Outdoor Air Node,8,PSZ-AC_5:5_OAINLET NODE
 Outdoor Air Node,9,PSZ-AC_6:6_OAINLET NODE
 Outdoor Air Node,10,PSZ-AC_7:7_OAINLET NODE
 Outdoor Air Node,11,PSZ-AC_8:8_OAINLET NODE
 Outdoor Air Node,12,PSZ-AC_9:9_OAINLET NODE
! ===============================================================
! <#Component Sets>,<Number of Component Sets>
 #Component Sets,60
! <Component Set>,<Component Set Count>,<Parent Object Type>,<Parent Object Name>,<Component Type>,<Component Name>,<Inlet Node ID>,<Outlet Node ID>,<Description>
 Component Set,1,BRANCH,PSZ-AC_10:10 AIR LOOP MAIN BRANCH,AIRLOOPHVAC:OUTDOORAIRSYSTEM,PSZ-AC_10:10_OA,PSZ-AC_10:10 SUPPLY EQUIPMENT INLET NODE,PSZ-AC_10:10_OA-PSZ-AC_10:10_UNITARY_PACKAGENODE,Air Nodes
 Component Set,2,BRANCH,PSZ-AC_10:10 AIR LOOP MAIN BRANCH,AIRLOOPHVAC:UNITARYHEATCOOL,PSZ-AC_10:10_UNITARY_PACKAGE,PSZ-AC_10:10_OA-PSZ-AC_10:10_UNITARY_PACKAGENODE,PSZ-AC_10:10 SUPPLY EQUIPMENT OUTLET NODE,Air Nodes
 Component Set,3,BRANCH,PSZ-AC_1:1 AIR LOOP MAIN BRANCH,AIRLOOPHVAC:OUTDOORAIRSYSTEM,PSZ-AC_1:1_OA,PSZ-AC_1:1 SUPPLY EQUIPMENT INLET NODE,PSZ-AC_1:1_OA-PSZ-AC_1:1_UNITARY_PACKAGENODE,Air Nodes
 Component Set,4,BRANCH,PSZ-AC_1:1 AIR LOOP MAIN BRANCH,AIRLOOPHVAC:UNITARYHEATCOOL,PSZ-AC_1:1_UNITARY_PACKAGE,PSZ-AC_1:1_OA-PSZ-AC_1:1_UNITARY_PACKAGENODE,PSZ-AC_1:1 SUPPLY EQUIPMENT OUTLET NODE,Air Nodes
 Component Set,5,BRANCH,PSZ-AC_2:2 AIR LOOP MAIN BRANCH,AIRLOOPHVAC:OUTDOORAIRSYSTEM,PSZ-AC_2:2_OA,PSZ-AC_2:2 SUPPLY EQUIPMENT INLET NODE,PSZ-AC_2:2_OA-PSZ-AC_2:2_UNITARY_PACKAGENODE,Air Nodes
 Component Set,6,BRANCH,PSZ-AC_2:2 AIR LOOP MAIN BRANCH,AIRLOOPHVAC:UNITARYHEATCOOL,PSZ-AC_2:2_UNITARY_PACKAGE,PSZ-AC_2:2_OA-PSZ-AC_2:2_UNITARY_PACKAGENODE,PSZ-AC_2:2 SUPPLY EQUIPMENT OUTLET NODE,Air Nodes
 Component Set,7,BRANCH,PSZ-AC_3:3 AIR LOOP MAIN BRANCH,AIRLOOPHVAC:OUTDOORAIRSYSTEM,PSZ-AC_3:3_OA,PSZ-AC_3:3 SUPPLY EQUIPMENT INLET NODE,PSZ-AC_3:3_OA-PSZ-AC_3:3_UNITARY_PACKAGENODE,Air Nodes
 Component Set,8,BRANCH,PSZ-AC_3:3 AIR LOOP MAIN BRANCH,AIRLOOPHVAC:UNITARYHEATCOOL,PSZ-AC_3:3_UNITARY_PACKAGE,PSZ-AC_3:3_OA-PSZ-AC_3:3_UNITARY_PACKAGENODE,PSZ-AC_3:3 SUPPLY EQUIPMENT OUTLET NODE,Air Nodes
 Component Set,9,BRANCH,PSZ-AC_4:4 AIR LOOP MAIN BRANCH,AIRLOOPHVAC:OUTDOORAIRSYSTEM,PSZ-AC_4:4_OA,PSZ-AC_4:4 SUPPLY EQUIPMENT INLET NODE,PSZ-AC_4:4_OA-PSZ-AC_4:4_UNITARY_PACKAGENODE,Air Nodes
 Component Set,10,BRANCH,PSZ-AC_4:4 AIR LOOP MAIN BRANCH,AIRLOOPHVAC:UNITARYHEATCOOL,PSZ-AC_4:4_UNITARY_PACKAGE,PSZ-AC_4:4_OA-PSZ-AC_4:4_UNITARY_PACKAGENODE,PSZ-AC_4:4 SUPPLY EQUIPMENT OUTLET NODE,Air Nodes
 Component Set,11,BRANCH,PSZ-AC_5:5 AIR LOOP MAIN BRANCH,AIRLOOPHVAC:OUTDOORAIRSYSTEM,PSZ-AC_5:5_OA,PSZ-AC_5:5 SUPPLY EQUIPMENT INLET NODE,PSZ-AC_5:5_OA-PSZ-AC_5:5_UNITARY_PACKAGENODE,Air Nodes
 Component Set,12,BRANCH,PSZ-AC_5:5 AIR LOOP MAIN BRANCH,AIRLOOPHVAC:UNITARYHEATCOOL,PSZ-AC_5:5_UNITARY_PACKAGE,PSZ-AC_5:5_OA-PSZ-AC_5:5_UNITARY_PACKAGENODE,PSZ-AC_5:5 SUPPLY EQUIPMENT OUTLET NODE,Air Nodes
 Component Set,13,BRANCH,PSZ-AC_6:6 AIR LOOP MAIN BRANCH,AIRLOOPHVAC:OUTDOORAIRSYSTEM,PSZ-AC_6:6_OA,PSZ-AC_6:6 SUPPLY EQUIPMENT INLET NODE,PSZ-AC_6:6_OA-PSZ-AC_6:6_UNITARY_PACKAGENODE,Air Nodes
 Component Set,14,BRANCH,PSZ-AC_6:6 AIR LOOP MAIN BRANCH,AIRLOOPHVAC:UNITARYHEATCOOL,PSZ-AC_6:6_UNITARY_PACKAGE,PSZ-AC_6:6_OA-PSZ-AC_6:6_UNITARY_PACKAGENODE,PSZ-AC_6:6 SUPPLY EQUIPMENT OUTLET NODE,Air Nodes
 Component Set,15,BRANCH,PSZ-AC_7:7 AIR LOOP MAIN BRANCH,AIRLOOPHVAC:OUTDOORAIRSYSTEM,PSZ-AC_7:7_OA,PSZ-AC_7:7 SUPPLY EQUIPMENT INLET NODE,PSZ-AC_7:7_OA-PSZ-AC_7:7_UNITARY_PACKAGENODE,Air Nodes
 Component Set,16,BRANCH,PSZ-AC_7:7 AIR LOOP MAIN BRANCH,AIRLOOPHVAC:UNITARYHEATCOOL,PSZ-AC_7:7_UNITARY_PACKAGE,PSZ-AC_7:7_OA-PSZ-AC_7:7_UNITARY_PACKAGENODE,PSZ-AC_7:7 SUPPLY EQUIPMENT OUTLET NODE,Air Nodes
 Component Set,17,BRANCH,PSZ-AC_8:8 AIR LOOP MAIN BRANCH,AIRLOOPHVAC:OUTDOORAIRSYSTEM,PSZ-AC_8:8_OA,PSZ-AC_8:8 SUPPLY EQUIPMENT INLET NODE,PSZ-AC_8:8_OA-PSZ-AC_8:8_UNITARY_PACKAGENODE,Air Nodes
 Component Set,18,BRANCH,PSZ-AC_8:8 AIR LOOP MAIN BRANCH,AIRLOOPHVAC:UNITARYHEATCOOL,PSZ-AC_8:8_UNITARY_PACKAGE,PSZ-AC_8:8_OA-PSZ-AC_8:8_UNITARY_PACKAGENODE,PSZ-AC_8:8 SUPPLY EQUIPMENT OUTLET NODE,Air Nodes
 Component Set,19,BRANCH,PSZ-AC_9:9 AIR LOOP MAIN BRANCH,AIRLOOPHVAC:OUTDOORAIRSYSTEM,PSZ-AC_9:9_OA,PSZ-AC_9:9 SUPPLY EQUIPMENT INLET NODE,PSZ-AC_9:9_OA-PSZ-AC_9:9_UNITARY_PACKAGENODE,Air Nodes
 Component Set,20,BRANCH,PSZ-AC_9:9 AIR LOOP MAIN BRANCH,AIRLOOPHVAC:UNITARYHEATCOOL,PSZ-AC_9:9_UNITARY_PACKAGE,PSZ-AC_9:9_OA-PSZ-AC_9:9_UNITARY_PACKAGENODE,PSZ-AC_9:9 SUPPLY EQUIPMENT OUTLET NODE,Air Nodes
 Component Set,21,AIRLOOPHVAC:OUTDOORAIRSYSTEM,PSZ-AC_10:10_OA,OUTDOORAIR:MIXER,PSZ-AC_10:10_OAMIXING BOX,PSZ-AC_10:10_OAINLET NODE,PSZ-AC_10:10_OA-PSZ-AC_10:10_UNITARY_PACKAGENODE,Air Nodes
 Component Set,22,AIRLOOPHVAC:OUTDOORAIRSYSTEM,PSZ-AC_1:1_OA,OUTDOORAIR:MIXER,PSZ-AC_1:1_OAMIXING BOX,PSZ-AC_1:1_OAINLET NODE,PSZ-AC_1:1_OA-PSZ-AC_1:1_UNITARY_PACKAGENODE,Air Nodes
 Component Set,23,AIRLOOPHVAC:OUTDOORAIRSYSTEM,PSZ-AC_2:2_OA,OUTDOORAIR:MIXER,PSZ-AC_2:2_OAMIXING BOX,PSZ-AC_2:2_OAINLET NODE,PSZ-AC_2:2_OA-PSZ-AC_2:2_UNITARY_PACKAGENODE,Air Nodes
 Component Set,24,AIRLOOPHVAC:OUTDOORAIRSYSTEM,PSZ-AC_3:3_OA,OUTDOORAIR:MIXER,PSZ-AC_3:3_OAMIXING BOX,PSZ-AC_3:3_OAINLET NODE,PSZ-AC_3:3_OA-PSZ-AC_3:3_UNITARY_PACKAGENODE,Air Nodes
 Component Set,25,AIRLOOPHVAC:OUTDOORAIRSYSTEM,PSZ-AC_4:4_OA,OUTDOORAIR:MIXER,PSZ-AC_4:4_OAMIXING BOX,PSZ-AC_4:4_OAINLET NODE,PSZ-AC_4:4_OA-PSZ-AC_4:4_UNITARY_PACKAGENODE,Air Nodes
 Component Set,26,AIRLOOPHVAC:OUTDOORAIRSYSTEM,PSZ-AC_5:5_OA,OUTDOORAIR:MIXER,PSZ-AC_5:5_OAMIXING BOX,PSZ-AC_5:5_OAINLET NODE,PSZ-AC_5:5_OA-PSZ-AC_5:5_UNITARY_PACKAGENODE,Air Nodes
 Component Set,27,AIRLOOPHVAC:OUTDOORAIRSYSTEM,PSZ-AC_6:6_OA,OUTDOORAIR:MIXER,PSZ-AC_6:6_OAMIXING BOX,PSZ-AC_6:6_OAINLET NODE,PSZ-AC_6:6_OA-PSZ-AC_6:6_UNITARY_PACKAGENODE,Air Nodes
 Component Set,28,AIRLOOPHVAC:OUTDOORAIRSYSTEM,PSZ-AC_7:7_OA,OUTDOORAIR:MIXER,PSZ-AC_7:7_OAMIXING BOX,PSZ-AC_7:7_OAINLET NODE,PSZ-AC_7:7_OA-PSZ-AC_7:7_UNITARY_PACKAGENODE,Air Nodes
 Component Set,29,AIRLOOPHVAC:OUTDOORAIRSYSTEM,PSZ-AC_8:8_OA,OUTDOORAIR:MIXER,PSZ-AC_8:8_OAMIXING BOX,PSZ-AC_8:8_OAINLET NODE,PSZ-AC_8:8_OA-PSZ-AC_8:8_UNITARY_PACKAGENODE,Air Nodes
 Component Set,30,AIRLOOPHVAC:OUTDOORAIRSYSTEM,PSZ-AC_9:9_OA,OUTDOORAIR:MIXER,PSZ-AC_9:9_OAMIXING BOX,PSZ-AC_9:9_OAINLET NODE,PSZ-AC_9:9_OA-PSZ-AC_9:9_UNITARY_PACKAGENODE,Air Nodes
 Component Set,31,AIRLOOPHVAC:UNITARYHEATCOOL,PSZ-AC_10:10_UNITARY_PACKAGE,FAN:ONOFF,PSZ-AC_10:10_UNITARY_PACKAGE_FAN,PSZ-AC_10:10_OA-PSZ-AC_10:10_UNITARY_PACKAGENODE,PSZ-AC_10:10_UNITARY_PACKAGECOOLCOIL AIR INLET,Air Nodes
 Component Set,32,AIRLOOPHVAC:UNITARYHEATCOOL,PSZ-AC_1:1_UNITARY_PACKAGE,FAN:ONOFF,PSZ-AC_1:1_UNITARY_PACKAGE_FAN,PSZ-AC_1:1_OA-PSZ-AC_1:1_UNITARY_PACKAGENODE,PSZ-AC_1:1_UNITARY_PACKAGECOOLCOIL AIR INLET,Air Nodes
 Component Set,33,AIRLOOPHVAC:UNITARYHEATCOOL,PSZ-AC_2:2_UNITARY_PACKAGE,FAN:ONOFF,PSZ-AC_2:2_UNITARY_PACKAGE_FAN,PSZ-AC_2:2_OA-PSZ-AC_2:2_UNITARY_PACKAGENODE,PSZ-AC_2:2_UNITARY_PACKAGECOOLCOIL AIR INLET,Air Nodes
 Component Set,34,AIRLOOPHVAC:UNITARYHEATCOOL,PSZ-AC_3:3_UNITARY_PACKAGE,FAN:ONOFF,PSZ-AC_3:3_UNITARY_PACKAGE_FAN,PSZ-AC_3:3_OA-PSZ-AC_3:3_UNITARY_PACKAGENODE,PSZ-AC_3:3_UNITARY_PACKAGECOOLCOIL AIR INLET,Air Nodes
 Component Set,35,AIRLOOPHVAC:UNITARYHEATCOOL,PSZ-AC_4:4_UNITARY_PACKAGE,FAN:ONOFF,PSZ-AC_4:4_UNITARY_PACKAGE_FAN,PSZ-AC_4:4_OA-PSZ-AC_4:4_UNITARY_PACKAGENODE,PSZ-AC_4:4_UNITARY_PACKAGECOOLCOIL AIR INLET,Air Nodes
 Component Set,36,AIRLOOPHVAC:UNITARYHEATCOOL,PSZ-AC_5:5_UNITARY_PACKAGE,FAN:ONOFF,PSZ-AC_5:5_UNITARY_PACKAGE_FAN,PSZ-AC_5:5_OA-PSZ-AC_5:5_UNITARY_PACKAGENODE,PSZ-AC_5:5_UNITARY_PACKAGECOOLCOIL AIR INLET,Air Nodes
 Component Set,37,AIRLOOPHVAC:UNITARYHEATCOOL,PSZ-AC_6:6_UNITARY_PACKAGE,FAN:ONOFF,PSZ-AC_6:6_UNITARY_PACKAGE_FAN,PSZ-AC_6:6_OA-PSZ-AC_6:6_UNITARY_PACKAGENODE,PSZ-AC_6:6_UNITARY_PACKAGECOOLCOIL AIR INLET,Air Nodes
 Component Set,38,AIRLOOPHVAC:UNITARYHEATCOOL,PSZ-AC_7:7_UNITARY_PACKAGE,FAN:ONOFF,PSZ-AC_7:7_UNITARY_PACKAGE_FAN,PSZ-AC_7:7_OA-PSZ-AC_7:7_UNITARY_PACKAGENODE,PSZ-AC_7:7_UNITARY_PACKAGECOOLCOIL AIR INLET,Air Nodes
 Component Set,39,AIRLOOPHVAC:UNITARYHEATCOOL,PSZ-AC_8:8_UNITARY_PACKAGE,FAN:ONOFF,PSZ-AC_8:8_UNITARY_PACKAGE_FAN,PSZ-AC_8:8_OA-PSZ-AC_8:8_UNITARY_PACKAGENODE,PSZ-AC_8:8_UNITARY_PACKAGECOOLCOIL AIR INLET,Air Nodes
 Component Set,40,AIRLOOPHVAC:UNITARYHEATCOOL,PSZ-AC_9:9_UNITARY_PACKAGE,FAN:ONOFF,PSZ-AC_9:9_UNITARY_PACKAGE_FAN,PSZ-AC_9:9_OA-PSZ-AC_9:9_UNITARY_PACKAGENODE,PSZ-AC_9:9_UNITARY_PACKAGECOOLCOIL AIR INLET,Air Nodes
 Component Set,41,AIRLOOPHVAC:UNITARYHEATCOOL,PSZ-AC_10:10_UNITARY_PACKAGE,COIL:HEATING:FUEL,PSZ-AC_10:10_UNITARY_PACKAGE_HEATCOIL,PSZ-AC_10:10_UNITARY_PACKAGEHEATCOIL AIR INLET,PSZ-AC_10:10 SUPPLY EQUIPMENT OUTLET NODE,Air Nodes
 Component Set,42,AIRLOOPHVAC:UNITARYHEATCOOL,PSZ-AC_1:1_UNITARY_PACKAGE,COIL:HEATING:FUEL,PSZ-AC_1:1_UNITARY_PACKAGE_HEATCOIL,PSZ-AC_1:1_UNITARY_PACKAGEHEATCOIL AIR INLET,PSZ-AC_1:1 SUPPLY EQUIPMENT OUTLET NODE,Air Nodes
 Component Set,43,AIRLOOPHVAC:UNITARYHEATCOOL,PSZ-AC_2:2_UNITARY_PACKAGE,COIL:HEATING:FUEL,PSZ-AC_2:2_UNITARY_PACKAGE_HEATCOIL,PSZ-AC_2:2_UNITARY_PACKAGEHEATCOIL AIR INLET,PSZ-AC_2:2 SUPPLY EQUIPMENT OUTLET NODE,Air Nodes
 Component Set,44,AIRLOOPHVAC:UNITARYHEATCOOL,PSZ-AC_3:3_UNITARY_PACKAGE,COIL:HEATING:FUEL,PSZ-AC_3:3_UNITARY_PACKAGE_HEATCOIL,PSZ-AC_3:3_UNITARY_PACKAGEHEATCOIL AIR INLET,PSZ-AC_3:3 SUPPLY EQUIPMENT OUTLET NODE,Air Nodes
 Component Set,45,AIRLOOPHVAC:UNITARYHEATCOOL,PSZ-AC_4:4_UNITARY_PACKAGE,COIL:HEATING:FUEL,PSZ-AC_4:4_UNITARY_PACKAGE_HEATCOIL,PSZ-AC_4:4_UNITARY_PACKAGEHEATCOIL AIR INLET,PSZ-AC_4:4 SUPPLY EQUIPMENT OUTLET NODE,Air Nodes
 Component Set,46,AIRLOOPHVAC:UNITARYHEATCOOL,PSZ-AC_5:5_UNITARY_PACKAGE,COIL:HEATING:FUEL,PSZ-AC_5:5_UNITARY_PACKAGE_HEATCOIL,PSZ-AC_5:5_UNITARY_PACKAGEHEATCOIL AIR INLET,PSZ-AC_5:5 SUPPLY EQUIPMENT OUTLET NODE,Air Nodes
 Component Set,47,AIRLOOPHVAC:UNITARYHEATCOOL,PSZ-AC_6:6_UNITARY_PACKAGE,COIL:HEATING:FUEL,PSZ-AC_6:6_UNITARY_PACKAGE_HEATCOIL,PSZ-AC_6:6_UNITARY_PACKAGEHEATCOIL AIR INLET,PSZ-AC_6:6 SUPPLY EQUIPMENT OUTLET NODE,Air Nodes
 Component Set,48,AIRLOOPHVAC:UNITARYHEATCOOL,PSZ-AC_7:7_UNITARY_PACKAGE,COIL:HEATING:FUEL,PSZ-AC_7:7_UNITARY_PACKAGE_HEATCOIL,PSZ-AC_7:7_UNITARY_PACKAGEHEATCOIL AIR INLET,PSZ-AC_7:7 SUPPLY EQUIPMENT OUTLET NODE,Air Nodes
 Component Set,49,AIRLOOPHVAC:UNITARYHEATCOOL,PSZ-AC_8:8_UNITARY_PACKAGE,COIL:HEATING:FUEL,PSZ-AC_8:8_UNITARY_PACKAGE_HEATCOIL,PSZ-AC_8:8_UNITARY_PACKAGEHEATCOIL AIR INLET,PSZ-AC_8:8 SUPPLY EQUIPMENT OUTLET NODE,Air Nodes
 Component Set,50,AIRLOOPHVAC:UNITARYHEATCOOL,PSZ-AC_9:9_UNITARY_PACKAGE,COIL:HEATING:FUEL,PSZ-AC_9:9_UNITARY_PACKAGE_HEATCOIL,PSZ-AC_9:9_UNITARY_PACKAGEHEATCOIL AIR INLET,PSZ-AC_9:9 SUPPLY EQUIPMENT OUTLET NODE,Air Nodes
 Component Set,51,AIRLOOPHVAC:UNITARYHEATCOOL,PSZ-AC_10:10_UNITARY_PACKAGE,COIL:COOLING:DX:SINGLESPEED,PSZ-AC_10:10_UNITARY_PACKAGE_COOLCOIL,PSZ-AC_10:10_UNITARY_PACKAGECOOLCOIL AIR INLET,PSZ-AC_10:10_UNITARY_PACKAGEHEATCOIL AIR INLET,Air Nodes
 Component Set,52,AIRLOOPHVAC:UNITARYHEATCOOL,PSZ-AC_1:1_UNITARY_PACKAGE,COIL:COOLING:DX:SINGLESPEED,PSZ-AC_1:1_UNITARY_PACKAGE_COOLCOIL,PSZ-AC_1:1_UNITARY_PACKAGECOOLCOIL AIR INLET,PSZ-AC_1:1_UNITARY_PACKAGEHEATCOIL AIR INLET,Air Nodes
 Component Set,53,AIRLOOPHVAC:UNITARYHEATCOOL,PSZ-AC_2:2_UNITARY_PACKAGE,COIL:COOLING:DX:SINGLESPEED,PSZ-AC_2:2_UNITARY_PACKAGE_COOLCOIL,PSZ-AC_2:2_UNITARY_PACKAGECOOLCOIL AIR INLET,PSZ-AC_2:2_UNITARY_PACKAGEHEATCOIL AIR INLET,Air Nodes
 Component Set,54,AIRLOOPHVAC:UNITARYHEATCOOL,PSZ-AC_3:3_UNITARY_PACKAGE,COIL:COOLING:DX:SINGLESPEED,PSZ-AC_3:3_UNITARY_PACKAGE_COOLCOIL,PSZ-AC_3:3_UNITARY_PACKAGECOOLCOIL AIR INLET,PSZ-AC_3:3_UNITARY_PACKAGEHEATCOIL AIR INLET,Air Nodes
 Component Set,55,AIRLOOPHVAC:UNITARYHEATCOOL,PSZ-AC_4:4_UNITARY_PACKAGE,COIL:COOLING:DX:SINGLESPEED,PSZ-AC_4:4_UNITARY_PACKAGE_COOLCOIL,PSZ-AC_4:4_UNITARY_PACKAGECOOLCOIL AIR INLET,PSZ-AC_4:4_UNITARY_PACKAGEHEATCOIL AIR INLET,Air Nodes
 Component Set,56,AIRLOOPHVAC:UNITARYHEATCOOL,PSZ-AC_5:5_UNITARY_PACKAGE,COIL:COOLING:DX:SINGLESPEED,PSZ-AC_5:5_UNITARY_PACKAGE_COOLCOIL,PSZ-AC_5:5_UNITARY_PACKAGECOOLCOIL AIR INLET,PSZ-AC_5:5_UNITARY_PACKAGEHEATCOIL AIR INLET,Air Nodes
 Component Set,57,AIRLOOPHVAC:UNITARYHEATCOOL,PSZ-AC_6:6_UNITARY_PACKAGE,COIL:COOLING:DX:SINGLESPEED,PSZ-AC_6:6_UNITARY_PACKAGE_COOLCOIL,PSZ-AC_6:6_UNITARY_PACKAGECOOLCOIL AIR INLET,PSZ-AC_6:6_UNITARY_PACKAGEHEATCOIL AIR INLET,Air Nodes
 Component Set,58,AIRLOOPHVAC:UNITARYHEATCOOL,PSZ-AC_7:7_UNITARY_PACKAGE,COIL:COOLING:DX:SINGLESPEED,PSZ-AC_7:7_UNITARY_PACKAGE_COOLCOIL,PSZ-AC_7:7_UNITARY_PACKAGECOOLCOIL AIR INLET,PSZ-AC_7:7_UNITARY_PACKAGEHEATCOIL AIR INLET,Air Nodes
 Component Set,59,AIRLOOPHVAC:UNITARYHEATCOOL,PSZ-AC_8:8_UNITARY_PACKAGE,COIL:COOLING:DX:SINGLESPEED,PSZ-AC_8:8_UNITARY_PACKAGE_COOLCOIL,PSZ-AC_8:8_UNITARY_PACKAGECOOLCOIL AIR INLET,PSZ-AC_8:8_UNITARY_PACKAGEHEATCOIL AIR INLET,Air Nodes
 Component Set,60,AIRLOOPHVAC:UNITARYHEATCOOL,PSZ-AC_9:9_UNITARY_PACKAGE,COIL:COOLING:DX:SINGLESPEED,PSZ-AC_9:9_UNITARY_PACKAGE_COOLCOIL,PSZ-AC_9:9_UNITARY_PACKAGECOOLCOIL AIR INLET,PSZ-AC_9:9_UNITARY_PACKAGEHEATCOIL AIR INLET,Air Nodes
! ===============================================================
! <# Plant Loops>,<Number of Plant Loops>
 #Plant Loops,0
! <Plant Loop>,<Plant Loop Name>,<Loop Type>,<Inlet Node Name>,<Outlet Node Name>,<Branch List>,<Connector List>
! <Plant Loop Connector>,<Connector Type>,<Connector Name>,<Loop Name>,<Loop Type>,<Number of Inlets/Outlets>
! <Plant Loop Connector Branches>,<Connector Node Count>,<Connector Type>,<Connector Name>,<Inlet Branch>,<Outlet Branch>,<Loop Name>,<Loop Type>
! <Plant Loop Connector Nodes>,<Connector Node Count>,<Connector Type>,<Connector Name>,<Inlet Node>,<Outlet Node>,<Loop Name>,<Loop Type>
! <Plant Loop Supply Connection>,<Plant Loop Name>,<Supply Side Outlet Node Name>,<Demand Side Inlet Node Name>
! <Plant Loop Return Connection>,<Plant Loop Name>,<Demand Side Outlet Node Name>,<Supply Side Inlet Node Name>
! ===============================================================
! <# Condenser Loops>,<Number of Condenser Loops>
 #Condenser Loops,0
! <Condenser Loop>,<Condenser Loop Name>,<Loop Type>,<Inlet Node Name>,<Outlet Node Name>,<Branch List>,<Connector List>
! <Condenser Loop Connector>,<Connector Type>,<Connector Name>,<Loop Name>,<Loop Type>,<Number of Inlets/Outlets>
! <Condenser Loop Connector Branches>,<Connector Node Count>,<Connector Type>,<Connector Name>,<Inlet Branch>,<Outlet Branch>,<Loop Name>,<Loop Type>
! <Condenser Loop Connector Nodes>,<Connector Node Count>,<Connector Type>,<Connector Name>,<Inlet Node>,<Outlet Node>,<Loop Name>,<Loop Type>
! <Condenser Loop Supply Connection>,<Condenser Loop Name>,<Supply Side Outlet Node Name>,<Demand Side Inlet Node Name>
! <Condenser Loop Return Connection>,<Condenser Loop Name>,<Demand Side Outlet Node Name>,<Supply Side Inlet Node Name>
! ===============================================================
! <# Controlled Zones>,<Number of Controlled Zones>
 #Controlled Zones,10
! <Controlled Zone>,<Controlled Zone Name>,<Equip List Name>,<Control List Name>,<Zone Node Name>,<# Inlet Nodes>,<# Exhaust Nodes>,<# Return Nodes>
! <Controlled Zone Inlet>,<Inlet Node Count>,<Controlled Zone Name>,<Supply Air Inlet Node Name>,<SD Sys:Cooling/Heating [DD:Cooling] Inlet Node Name>,<DD Sys:Heating Inlet Node Name>
! <Controlled Zone Exhaust>,<Exhaust Node Count>,<Controlled Zone Name>,<Exhaust Air Node Name>
 Controlled Zone,LGSTORE1,LGSTORE1 EQUIPMENT,,LGSTORE1 AIR NODE,1,0,1
   Controlled Zone Inlet,1,LGSTORE1,LGSTORE1 DIRECT AIR INLET NODE NAME,LGSTORE1 DIRECT AIR INLET NODE NAME,N/A
   Controlled Zone Return,1,LGSTORE1,LGSTORE1 RETURN AIR NODE NAME
 Controlled Zone,LGSTORE2,LGSTORE2 EQUIPMENT,,LGSTORE2 AIR NODE,1,0,1
   Controlled Zone Inlet,1,LGSTORE2,LGSTORE2 DIRECT AIR INLET NODE NAME,LGSTORE2 DIRECT AIR INLET NODE NAME,N/A
   Controlled Zone Return,1,LGSTORE2,LGSTORE2 RETURN AIR NODE NAME
 Controlled Zone,SMSTORE1,SMSTORE1 EQUIPMENT,,SMSTORE1 AIR NODE,1,0,1
   Controlled Zone Inlet,1,SMSTORE1,SMSTORE1 DIRECT AIR INLET NODE NAME,SMSTORE1 DIRECT AIR INLET NODE NAME,N/A
   Controlled Zone Return,1,SMSTORE1,SMSTORE1 RETURN AIR NODE NAME
 Controlled Zone,SMSTORE2,SMSTORE2 EQUIPMENT,,SMSTORE2 AIR NODE,1,0,1
   Controlled Zone Inlet,1,SMSTORE2,SMSTORE2 DIRECT AIR INLET NODE NAME,SMSTORE2 DIRECT AIR INLET NODE NAME,N/A
   Controlled Zone Return,1,SMSTORE2,SMSTORE2 RETURN AIR NODE NAME
 Controlled Zone,SMSTORE3,SMSTORE3 EQUIPMENT,,SMSTORE3 AIR NODE,1,0,1
   Controlled Zone Inlet,1,SMSTORE3,SMSTORE3 DIRECT AIR INLET NODE NAME,SMSTORE3 DIRECT AIR INLET NODE NAME,N/A
   Controlled Zone Return,1,SMSTORE3,SMSTORE3 RETURN AIR NODE NAME
 Controlled Zone,SMSTORE4,SMSTORE4 EQUIPMENT,,SMSTORE4 AIR NODE,1,0,1
   Controlled Zone Inlet,1,SMSTORE4,SMSTORE4 DIRECT AIR INLET NODE NAME,SMSTORE4 DIRECT AIR INLET NODE NAME,N/A
   Controlled Zone Return,1,SMSTORE4,SMSTORE4 RETURN AIR NODE NAME
 Controlled Zone,SMSTORE5,SMSTORE5 EQUIPMENT,,SMSTORE5 AIR NODE,1,0,1
   Controlled Zone Inlet,1,SMSTORE5,SMSTORE5 DIRECT AIR INLET NODE NAME,SMSTORE5 DIRECT AIR INLET NODE NAME,N/A
   Controlled Zone Return,1,SMSTORE5,SMSTORE5 RETURN AIR NODE NAME
 Controlled Zone,SMSTORE6,SMSTORE6 EQUIPMENT,,SMSTORE6 AIR NODE,1,0,1
   Controlled Zone Inlet,1,SMSTORE6,SMSTORE6 DIRECT AIR INLET NODE NAME,SMSTORE6 DIRECT AIR INLET NODE NAME,N/A
   Controlled Zone Return,1,SMSTORE6,SMSTORE6 RETURN AIR NODE NAME
 Controlled Zone,SMSTORE7,SMSTORE7 EQUIPMENT,,SMSTORE7 AIR NODE,1,0,1
   Controlled Zone Inlet,1,SMSTORE7,SMSTORE7 DIRECT AIR INLET NODE NAME,SMSTORE7 DIRECT AIR INLET NODE NAME,N/A
   Controlled Zone Return,1,SMSTORE7,SMSTORE7 RETURN AIR NODE NAME
 Controlled Zone,SMSTORE8,SMSTORE8 EQUIPMENT,,SMSTORE8 AIR NODE,1,0,1
   Controlled Zone Inlet,1,SMSTORE8,SMSTORE8 DIRECT AIR INLET NODE NAME,SMSTORE8 DIRECT AIR INLET NODE NAME,N/A
   Controlled Zone Return,1,SMSTORE8,SMSTORE8 RETURN AIR NODE NAME
! ===============================================================
! <#Zone Equipment Lists>,<Number of Zone Equipment Lists>
 #Zone Equipment Lists,10
! <Zone Equipment List>,<Zone Equipment List Count>,<Zone Equipment List Name>,<Zone Name>,<Number of Components>
! <Zone Equipment Component>,<Component Count>,<Component Type>,<Component Name>,<Zone Name>,<Heating Priority>,<Cooling Priority>
 Zone Equipment List,1,LGSTORE1 EQUIPMENT,LGSTORE1,1
   Zone Equipment Component,1,AIRTERMINAL:SINGLEDUCT:UNCONTROLLED,LGSTORE1 DIRECT AIR,LGSTORE1,1,1
 Zone Equipment List,2,LGSTORE2 EQUIPMENT,LGSTORE2,1
   Zone Equipment Component,1,AIRTERMINAL:SINGLEDUCT:UNCONTROLLED,LGSTORE2 DIRECT AIR,LGSTORE2,1,1
 Zone Equipment List,3,SMSTORE1 EQUIPMENT,SMSTORE1,1
   Zone Equipment Component,1,AIRTERMINAL:SINGLEDUCT:UNCONTROLLED,SMSTORE1 DIRECT AIR,SMSTORE1,1,1
 Zone Equipment List,4,SMSTORE2 EQUIPMENT,SMSTORE2,1
   Zone Equipment Component,1,AIRTERMINAL:SINGLEDUCT:UNCONTROLLED,SMSTORE2 DIRECT AIR,SMSTORE2,1,1
 Zone Equipment List,5,SMSTORE3 EQUIPMENT,SMSTORE3,1
   Zone Equipment Component,1,AIRTERMINAL:SINGLEDUCT:UNCONTROLLED,SMSTORE3 DIRECT AIR,SMSTORE3,1,1
 Zone Equipment List,6,SMSTORE4 EQUIPMENT,SMSTORE4,1
   Zone Equipment Component,1,AIRTERMINAL:SINGLEDUCT:UNCONTROLLED,SMSTORE4 DIRECT AIR,SMSTORE4,1,1
 Zone Equipment List,7,SMSTORE5 EQUIPMENT,SMSTORE5,1
   Zone Equipment Component,1,AIRTERMINAL:SINGLEDUCT:UNCONTROLLED,SMSTORE5 DIRECT AIR,SMSTORE5,1,1
 Zone Equipment List,8,SMSTORE6 EQUIPMENT,SMSTORE6,1
   Zone Equipment Component,1,AIRTERMINAL:SINGLEDUCT:UNCONTROLLED,SMSTORE6 DIRECT AIR,SMSTORE6,1,1
 Zone Equipment List,9,SMSTORE7 EQUIPMENT,SMSTORE7,1
   Zone Equipment Component,1,AIRTERMINAL:SINGLEDUCT:UNCONTROLLED,SMSTORE7 DIRECT AIR,SMSTORE7,1,1
 Zone Equipment List,10,SMSTORE8 EQUIPMENT,SMSTORE8,1
   Zone Equipment Component,1,AIRTERMINAL:SINGLEDUCT:UNCONTROLLED,SMSTORE8 DIRECT AIR,SMSTORE8,1,1
! ===============================================================
! <#AirLoopHVACs>,<Number of AirLoopHVACs>
 #AirLoopHVACs,10
! <AirLoopHVAC>,<Air Loop Name>,<# Return Nodes>,<# Supply Nodes>,<# Zones Cooled>,<# Zones Heated>,<Outdoor Air Used>
! <AirLoop Return Connections>,<Connection Count>,<AirLoopHVAC Name>,<Zn Eqp Return Node #>,<Zn Eqp Return Node Name>,<AirLoop Return Node #>,<Air Loop Return Node Name>
! <AirLoop Supply Connections>,<Connection Count>,<AirLoopHVAC Name>,<Zn Eqp Supply Node #>,<Zn Eqp Supply Node Name>,<AirLoop Supply Node #>,<Air Loop Supply Node Name>
! <Cooled Zone Info>,<Cooled Zone Count>,<Cooled Zone Name>,<Cooled Zone Inlet Node #>,<Cooled Zone Inlet Node Name>,<AirLoopHVAC Name>
! <Heated Zone Info>,<Heated Zone Count>,<Heated Zone Name>,<Heated Zone Inlet Node #>,<Heated Zone Inlet Node Name>,<AirLoopHVAC Name>
! <Outdoor Air Connections>,<OA Inlet Node #>,<OA Return Air Inlet Node Name>,<OA Outlet Node #>,<OA Mixed Air Outlet Node Name>,<AirLoopHVAC Name>
! <AirLoopHVAC Connector>,<Connector Type>,<Connector Name>,<Loop Name>,<Loop Type>,<Number of Inlets/Outlets>
! <AirLoopHVAC Connector Branches>,<Connector Node Count>,<Connector Type>,<Connector Name>,<Inlet Branch>,<Outlet Branch>,<Loop Name>,<Loop Type>
! <AirLoopHVAC Connector Nodes>,<Connector Node Count>,<Connector Type>,<Connector Name>,<Inlet Node>,<Outlet Node>,<Loop Name>,<Loop Type>
 AirLoopHVAC,PSZ-AC_10:10,1,1,1,0,Yes
   AirLoop Return Connections,1,PSZ-AC_10:10,81,PSZ-AC_10:10 ZONE EQUIPMENT OUTLET NODE,21,PSZ-AC_10:10 SUPPLY EQUIPMENT INLET NODE
   AirLoop Supply Connections,1,PSZ-AC_10:10,71,PSZ-AC_10:10 ZONE EQUIPMENT INLET NODE,23,PSZ-AC_10:10 SUPPLY EQUIPMENT OUTLET NODE
   Cooled Zone Info,1,SMSTORE8,20,SMSTORE8 DIRECT AIR INLET NODE NAME,PSZ-AC_10:10
   Outdoor Air Connections,21,PSZ-AC_10:10 SUPPLY EQUIPMENT INLET NODE,22,PSZ-AC_10:10_OA-PSZ-AC_10:10_UNITARY_PACKAGENODE,PSZ-AC_10:10
 AirLoopHVAC,PSZ-AC_1:1,1,1,1,0,Yes
   AirLoop Return Connections,1,PSZ-AC_1:1,82,PSZ-AC_1:1 ZONE EQUIPMENT OUTLET NODE,24,PSZ-AC_1:1 SUPPLY EQUIPMENT INLET NODE
   AirLoop Supply Connections,1,PSZ-AC_1:1,72,PSZ-AC_1:1 ZONE EQUIPMENT INLET NODE,26,PSZ-AC_1:1 SUPPLY EQUIPMENT OUTLET NODE
   Cooled Zone Info,1,LGSTORE1,1,LGSTORE1 DIRECT AIR INLET NODE NAME,PSZ-AC_1:1
   Outdoor Air Connections,24,PSZ-AC_1:1 SUPPLY EQUIPMENT INLET NODE,25,PSZ-AC_1:1_OA-PSZ-AC_1:1_UNITARY_PACKAGENODE,PSZ-AC_1:1
 AirLoopHVAC,PSZ-AC_2:2,1,1,1,0,Yes
   AirLoop Return Connections,1,PSZ-AC_2:2,83,PSZ-AC_2:2 ZONE EQUIPMENT OUTLET NODE,27,PSZ-AC_2:2 SUPPLY EQUIPMENT INLET NODE
   AirLoop Supply Connections,1,PSZ-AC_2:2,73,PSZ-AC_2:2 ZONE EQUIPMENT INLET NODE,29,PSZ-AC_2:2 SUPPLY EQUIPMENT OUTLET NODE
   Cooled Zone Info,1,SMSTORE1,13,SMSTORE1 DIRECT AIR INLET NODE NAME,PSZ-AC_2:2
   Outdoor Air Connections,27,PSZ-AC_2:2 SUPPLY EQUIPMENT INLET NODE,28,PSZ-AC_2:2_OA-PSZ-AC_2:2_UNITARY_PACKAGENODE,PSZ-AC_2:2
 AirLoopHVAC,PSZ-AC_3:3,1,1,1,0,Yes
   AirLoop Return Connections,1,PSZ-AC_3:3,84,PSZ-AC_3:3 ZONE EQUIPMENT OUTLET NODE,30,PSZ-AC_3:3 SUPPLY EQUIPMENT INLET NODE
   AirLoop Supply Connections,1,PSZ-AC_3:3,74,PSZ-AC_3:3 ZONE EQUIPMENT INLET NODE,32,PSZ-AC_3:3 SUPPLY EQUIPMENT OUTLET NODE
   Cooled Zone Info,1,SMSTORE2,14,SMSTORE2 DIRECT AIR INLET NODE NAME,PSZ-AC_3:3
   Outdoor Air Connections,30,PSZ-AC_3:3 SUPPLY EQUIPMENT INLET NODE,31,PSZ-AC_3:3_OA-PSZ-AC_3:3_UNITARY_PACKAGENODE,PSZ-AC_3:3
 AirLoopHVAC,PSZ-AC_4:4,1,1,1,0,Yes
   AirLoop Return Connections,1,PSZ-AC_4:4,85,PSZ-AC_4:4 ZONE EQUIPMENT OUTLET NODE,33,PSZ-AC_4:4 SUPPLY EQUIPMENT INLET NODE
   AirLoop Supply Connections,1,PSZ-AC_4:4,75,PSZ-AC_4:4 ZONE EQUIPMENT INLET NODE,35,PSZ-AC_4:4 SUPPLY EQUIPMENT OUTLET NODE
   Cooled Zone Info,1,SMSTORE3,15,SMSTORE3 DIRECT AIR INLET NODE NAME,PSZ-AC_4:4
   Outdoor Air Connections,33,PSZ-AC_4:4 SUPPLY EQUIPMENT INLET NODE,34,PSZ-AC_4:4_OA-PSZ-AC_4:4_UNITARY_PACKAGENODE,PSZ-AC_4:4
 AirLoopHVAC,PSZ-AC_5:5,1,1,1,0,Yes
   AirLoop Return Connections,1,PSZ-AC_5:5,86,PSZ-AC_5:5 ZONE EQUIPMENT OUTLET NODE,36,PSZ-AC_5:5 SUPPLY EQUIPMENT INLET NODE
   AirLoop Supply Connections,1,PSZ-AC_5:5,76,PSZ-AC_5:5 ZONE EQUIPMENT INLET NODE,38,PSZ-AC_5:5 SUPPLY EQUIPMENT OUTLET NODE
   Cooled Zone Info,1,SMSTORE4,16,SMSTORE4 DIRECT AIR INLET NODE NAME,PSZ-AC_5:5
   Outdoor Air Connections,36,PSZ-AC_5:5 SUPPLY EQUIPMENT INLET NODE,37,PSZ-AC_5:5_OA-PSZ-AC_5:5_UNITARY_PACKAGENODE,PSZ-AC_5:5
 AirLoopHVAC,PSZ-AC_6:6,1,1,1,0,Yes
   AirLoop Return Connections,1,PSZ-AC_6:6,87,PSZ-AC_6:6 ZONE EQUIPMENT OUTLET NODE,39,PSZ-AC_6:6 SUPPLY EQUIPMENT INLET NODE
   AirLoop Supply Connections,1,PSZ-AC_6:6,77,PSZ-AC_6:6 ZONE EQUIPMENT INLET NODE,41,PSZ-AC_6:6 SUPPLY EQUIPMENT OUTLET NODE
   Cooled Zone Info,1,LGSTORE2,2,LGSTORE2 DIRECT AIR INLET NODE NAME,PSZ-AC_6:6
   Outdoor Air Connections,39,PSZ-AC_6:6 SUPPLY EQUIPMENT INLET NODE,40,PSZ-AC_6:6_OA-PSZ-AC_6:6_UNITARY_PACKAGENODE,PSZ-AC_6:6
 AirLoopHVAC,PSZ-AC_7:7,1,1,1,0,Yes
   AirLoop Return Connections,1,PSZ-AC_7:7,88,PSZ-AC_7:7 ZONE EQUIPMENT OUTLET NODE,42,PSZ-AC_7:7 SUPPLY EQUIPMENT INLET NODE
   AirLoop Supply Connections,1,PSZ-AC_7:7,78,PSZ-AC_7:7 ZONE EQUIPMENT INLET NODE,44,PSZ-AC_7:7 SUPPLY EQUIPMENT OUTLET NODE
   Cooled Zone Info,1,SMSTORE5,17,SMSTORE5 DIRECT AIR INLET NODE NAME,PSZ-AC_7:7
   Outdoor Air Connections,42,PSZ-AC_7:7 SUPPLY EQUIPMENT INLET NODE,43,PSZ-AC_7:7_OA-PSZ-AC_7:7_UNITARY_PACKAGENODE,PSZ-AC_7:7
 AirLoopHVAC,PSZ-AC_8:8,1,1,1,0,Yes
   AirLoop Return Connections,1,PSZ-AC_8:8,89,PSZ-AC_8:8 ZONE EQUIPMENT OUTLET NODE,45,PSZ-AC_8:8 SUPPLY EQUIPMENT INLET NODE
   AirLoop Supply Connections,1,PSZ-AC_8:8,79,PSZ-AC_8:8 ZONE EQUIPMENT INLET NODE,47,PSZ-AC_8:8 SUPPLY EQUIPMENT OUTLET NODE
   Cooled Zone Info,1,SMSTORE6,18,SMSTORE6 DIRECT AIR INLET NODE NAME,PSZ-AC_8:8
   Outdoor Air Connections,45,PSZ-AC_8:8 SUPPLY EQUIPMENT INLET NODE,46,PSZ-AC_8:8_OA-PSZ-AC_8:8_UNITARY_PACKAGENODE,PSZ-AC_8:8
 AirLoopHVAC,PSZ-AC_9:9,1,1,1,0,Yes
   AirLoop Return Connections,1,PSZ-AC_9:9,90,PSZ-AC_9:9 ZONE EQUIPMENT OUTLET NODE,48,PSZ-AC_9:9 SUPPLY EQUIPMENT INLET NODE
   AirLoop Supply Connections,1,PSZ-AC_9:9,80,PSZ-AC_9:9 ZONE EQUIPMENT INLET NODE,50,PSZ-AC_9:9 SUPPLY EQUIPMENT OUTLET NODE
   Cooled Zone Info,1,SMSTORE7,19,SMSTORE7 DIRECT AIR INLET NODE NAME,PSZ-AC_9:9
   Outdoor Air Connections,48,PSZ-AC_9:9 SUPPLY EQUIPMENT INLET NODE,49,PSZ-AC_9:9_OA-PSZ-AC_9:9_UNITARY_PACKAGENODE,PSZ-AC_9:9
! ===============================================================
! <#Parent Node Connections>,<Number of Parent Node Connections>
 #Parent Node Connections,110
! <Parent Node Connection>,<Node Name>,<Node ObjectType>,<Node ObjectName>,<Node ConnectionType>,<Node FluidStream>
 Parent Node Connection,PSZ-AC_10:10 SUPPLY EQUIPMENT INLET NODE,BRANCH,PSZ-AC_10:10 AIR LOOP MAIN BRANCH,Inlet,1
 Parent Node Connection,PSZ-AC_10:10_OA-PSZ-AC_10:10_UNITARY_PACKAGENODE,BRANCH,PSZ-AC_10:10 AIR LOOP MAIN BRANCH,Internal,1
 Parent Node Connection,PSZ-AC_10:10 SUPPLY EQUIPMENT OUTLET NODE,BRANCH,PSZ-AC_10:10 AIR LOOP MAIN BRANCH,Outlet,1
 Parent Node Connection,PSZ-AC_1:1 SUPPLY EQUIPMENT INLET NODE,BRANCH,PSZ-AC_1:1 AIR LOOP MAIN BRANCH,Inlet,1
 Parent Node Connection,PSZ-AC_1:1_OA-PSZ-AC_1:1_UNITARY_PACKAGENODE,BRANCH,PSZ-AC_1:1 AIR LOOP MAIN BRANCH,Internal,1
 Parent Node Connection,PSZ-AC_1:1 SUPPLY EQUIPMENT OUTLET NODE,BRANCH,PSZ-AC_1:1 AIR LOOP MAIN BRANCH,Outlet,1
 Parent Node Connection,PSZ-AC_2:2 SUPPLY EQUIPMENT INLET NODE,BRANCH,PSZ-AC_2:2 AIR LOOP MAIN BRANCH,Inlet,1
 Parent Node Connection,PSZ-AC_2:2_OA-PSZ-AC_2:2_UNITARY_PACKAGENODE,BRANCH,PSZ-AC_2:2 AIR LOOP MAIN BRANCH,Internal,1
 Parent Node Connection,PSZ-AC_2:2 SUPPLY EQUIPMENT OUTLET NODE,BRANCH,PSZ-AC_2:2 AIR LOOP MAIN BRANCH,Outlet,1
 Parent Node Connection,PSZ-AC_3:3 SUPPLY EQUIPMENT INLET NODE,BRANCH,PSZ-AC_3:3 AIR LOOP MAIN BRANCH,Inlet,1
 Parent Node Connection,PSZ-AC_3:3_OA-PSZ-AC_3:3_UNITARY_PACKAGENODE,BRANCH,PSZ-AC_3:3 AIR LOOP MAIN BRANCH,Internal,1
 Parent Node Connection,PSZ-AC_3:3 SUPPLY EQUIPMENT OUTLET NODE,BRANCH,PSZ-AC_3:3 AIR LOOP MAIN BRANCH,Outlet,1
 Parent Node Connection,PSZ-AC_4:4 SUPPLY EQUIPMENT INLET NODE,BRANCH,PSZ-AC_4:4 AIR LOOP MAIN BRANCH,Inlet,1
 Parent Node Connection,PSZ-AC_4:4_OA-PSZ-AC_4:4_UNITARY_PACKAGENODE,BRANCH,PSZ-AC_4:4 AIR LOOP MAIN BRANCH,Internal,1
 Parent Node Connection,PSZ-AC_4:4 SUPPLY EQUIPMENT OUTLET NODE,BRANCH,PSZ-AC_4:4 AIR LOOP MAIN BRANCH,Outlet,1
 Parent Node Connection,PSZ-AC_5:5 SUPPLY EQUIPMENT INLET NODE,BRANCH,PSZ-AC_5:5 AIR LOOP MAIN BRANCH,Inlet,1
 Parent Node Connection,PSZ-AC_5:5_OA-PSZ-AC_5:5_UNITARY_PACKAGENODE,BRANCH,PSZ-AC_5:5 AIR LOOP MAIN BRANCH,Internal,1
 Parent Node Connection,PSZ-AC_5:5 SUPPLY EQUIPMENT OUTLET NODE,BRANCH,PSZ-AC_5:5 AIR LOOP MAIN BRANCH,Outlet,1
 Parent Node Connection,PSZ-AC_6:6 SUPPLY EQUIPMENT INLET NODE,BRANCH,PSZ-AC_6:6 AIR LOOP MAIN BRANCH,Inlet,1
 Parent Node Connection,PSZ-AC_6:6_OA-PSZ-AC_6:6_UNITARY_PACKAGENODE,BRANCH,PSZ-AC_6:6 AIR LOOP MAIN BRANCH,Internal,1
 Parent Node Connection,PSZ-AC_6:6 SUPPLY EQUIPMENT OUTLET NODE,BRANCH,PSZ-AC_6:6 AIR LOOP MAIN BRANCH,Outlet,1
 Parent Node Connection,PSZ-AC_7:7 SUPPLY EQUIPMENT INLET NODE,BRANCH,PSZ-AC_7:7 AIR LOOP MAIN BRANCH,Inlet,1
 Parent Node Connection,PSZ-AC_7:7_OA-PSZ-AC_7:7_UNITARY_PACKAGENODE,BRANCH,PSZ-AC_7:7 AIR LOOP MAIN BRANCH,Internal,1
 Parent Node Connection,PSZ-AC_7:7 SUPPLY EQUIPMENT OUTLET NODE,BRANCH,PSZ-AC_7:7 AIR LOOP MAIN BRANCH,Outlet,1
 Parent Node Connection,PSZ-AC_8:8 SUPPLY EQUIPMENT INLET NODE,BRANCH,PSZ-AC_8:8 AIR LOOP MAIN BRANCH,Inlet,1
 Parent Node Connection,PSZ-AC_8:8_OA-PSZ-AC_8:8_UNITARY_PACKAGENODE,BRANCH,PSZ-AC_8:8 AIR LOOP MAIN BRANCH,Internal,1
 Parent Node Connection,PSZ-AC_8:8 SUPPLY EQUIPMENT OUTLET NODE,BRANCH,PSZ-AC_8:8 AIR LOOP MAIN BRANCH,Outlet,1
 Parent Node Connection,PSZ-AC_9:9 SUPPLY EQUIPMENT INLET NODE,BRANCH,PSZ-AC_9:9 AIR LOOP MAIN BRANCH,Inlet,1
 Parent Node Connection,PSZ-AC_9:9_OA-PSZ-AC_9:9_UNITARY_PACKAGENODE,BRANCH,PSZ-AC_9:9 AIR LOOP MAIN BRANCH,Internal,1
 Parent Node Connection,PSZ-AC_9:9 SUPPLY EQUIPMENT OUTLET NODE,BRANCH,PSZ-AC_9:9 AIR LOOP MAIN BRANCH,Outlet,1
 Parent Node Connection,PSZ-AC_10:10 ZONE EQUIPMENT INLET NODE,AIRLOOPHVAC:SUPPLYPATH,PSZ-AC_10:10,Inlet,1
 Parent Node Connection,PSZ-AC_1:1 ZONE EQUIPMENT INLET NODE,AIRLOOPHVAC:SUPPLYPATH,PSZ-AC_1:1,Inlet,1
 Parent Node Connection,PSZ-AC_2:2 ZONE EQUIPMENT INLET NODE,AIRLOOPHVAC:SUPPLYPATH,PSZ-AC_2:2,Inlet,1
 Parent Node Connection,PSZ-AC_3:3 ZONE EQUIPMENT INLET NODE,AIRLOOPHVAC:SUPPLYPATH,PSZ-AC_3:3,Inlet,1
 Parent Node Connection,PSZ-AC_4:4 ZONE EQUIPMENT INLET NODE,AIRLOOPHVAC:SUPPLYPATH,PSZ-AC_4:4,Inlet,1
 Parent Node Connection,PSZ-AC_5:5 ZONE EQUIPMENT INLET NODE,AIRLOOPHVAC:SUPPLYPATH,PSZ-AC_5:5,Inlet,1
 Parent Node Connection,PSZ-AC_6:6 ZONE EQUIPMENT INLET NODE,AIRLOOPHVAC:SUPPLYPATH,PSZ-AC_6:6,Inlet,1
 Parent Node Connection,PSZ-AC_7:7 ZONE EQUIPMENT INLET NODE,AIRLOOPHVAC:SUPPLYPATH,PSZ-AC_7:7,Inlet,1
 Parent Node Connection,PSZ-AC_8:8 ZONE EQUIPMENT INLET NODE,AIRLOOPHVAC:SUPPLYPATH,PSZ-AC_8:8,Inlet,1
 Parent Node Connection,PSZ-AC_9:9 ZONE EQUIPMENT INLET NODE,AIRLOOPHVAC:SUPPLYPATH,PSZ-AC_9:9,Inlet,1
 Parent Node Connection,PSZ-AC_10:10 ZONE EQUIPMENT OUTLET NODE,AIRLOOPHVAC:RETURNPATH,PSZ-AC_10:10 RETURN AIR PATH,Outlet,1
 Parent Node Connection,PSZ-AC_1:1 ZONE EQUIPMENT OUTLET NODE,AIRLOOPHVAC:RETURNPATH,PSZ-AC_1:1 RETURN AIR PATH,Outlet,1
 Parent Node Connection,PSZ-AC_2:2 ZONE EQUIPMENT OUTLET NODE,AIRLOOPHVAC:RETURNPATH,PSZ-AC_2:2 RETURN AIR PATH,Outlet,1
 Parent Node Connection,PSZ-AC_3:3 ZONE EQUIPMENT OUTLET NODE,AIRLOOPHVAC:RETURNPATH,PSZ-AC_3:3 RETURN AIR PATH,Outlet,1
 Parent Node Connection,PSZ-AC_4:4 ZONE EQUIPMENT OUTLET NODE,AIRLOOPHVAC:RETURNPATH,PSZ-AC_4:4 RETURN AIR PATH,Outlet,1
 Parent Node Connection,PSZ-AC_5:5 ZONE EQUIPMENT OUTLET NODE,AIRLOOPHVAC:RETURNPATH,PSZ-AC_5:5 RETURN AIR PATH,Outlet,1
 Parent Node Connection,PSZ-AC_6:6 ZONE EQUIPMENT OUTLET NODE,AIRLOOPHVAC:RETURNPATH,PSZ-AC_6:6 RETURN AIR PATH,Outlet,1
 Parent Node Connection,PSZ-AC_7:7 ZONE EQUIPMENT OUTLET NODE,AIRLOOPHVAC:RETURNPATH,PSZ-AC_7:7 RETURN AIR PATH,Outlet,1
 Parent Node Connection,PSZ-AC_8:8 ZONE EQUIPMENT OUTLET NODE,AIRLOOPHVAC:RETURNPATH,PSZ-AC_8:8 RETURN AIR PATH,Outlet,1
 Parent Node Connection,PSZ-AC_9:9 ZONE EQUIPMENT OUTLET NODE,AIRLOOPHVAC:RETURNPATH,PSZ-AC_9:9 RETURN AIR PATH,Outlet,1
 Parent Node Connection,PSZ-AC_10:10 SUPPLY EQUIPMENT INLET NODE,AIRLOOPHVAC,PSZ-AC_10:10,Inlet,1
 Parent Node Connection,PSZ-AC_10:10 ZONE EQUIPMENT OUTLET NODE,AIRLOOPHVAC,PSZ-AC_10:10,Outlet,1
 Parent Node Connection,PSZ-AC_10:10 ZONE EQUIPMENT INLET NODE,AIRLOOPHVAC,PSZ-AC_10:10,Inlet,1
 Parent Node Connection,PSZ-AC_10:10 SUPPLY EQUIPMENT OUTLET NODE,AIRLOOPHVAC,PSZ-AC_10:10,Outlet,1
 Parent Node Connection,PSZ-AC_1:1 SUPPLY EQUIPMENT INLET NODE,AIRLOOPHVAC,PSZ-AC_1:1,Inlet,1
 Parent Node Connection,PSZ-AC_1:1 ZONE EQUIPMENT OUTLET NODE,AIRLOOPHVAC,PSZ-AC_1:1,Outlet,1
 Parent Node Connection,PSZ-AC_1:1 ZONE EQUIPMENT INLET NODE,AIRLOOPHVAC,PSZ-AC_1:1,Inlet,1
 Parent Node Connection,PSZ-AC_1:1 SUPPLY EQUIPMENT OUTLET NODE,AIRLOOPHVAC,PSZ-AC_1:1,Outlet,1
 Parent Node Connection,PSZ-AC_2:2 SUPPLY EQUIPMENT INLET NODE,AIRLOOPHVAC,PSZ-AC_2:2,Inlet,1
 Parent Node Connection,PSZ-AC_2:2 ZONE EQUIPMENT OUTLET NODE,AIRLOOPHVAC,PSZ-AC_2:2,Outlet,1
 Parent Node Connection,PSZ-AC_2:2 ZONE EQUIPMENT INLET NODE,AIRLOOPHVAC,PSZ-AC_2:2,Inlet,1
 Parent Node Connection,PSZ-AC_2:2 SUPPLY EQUIPMENT OUTLET NODE,AIRLOOPHVAC,PSZ-AC_2:2,Outlet,1
 Parent Node Connection,PSZ-AC_3:3 SUPPLY EQUIPMENT INLET NODE,AIRLOOPHVAC,PSZ-AC_3:3,Inlet,1
 Parent Node Connection,PSZ-AC_3:3 ZONE EQUIPMENT OUTLET NODE,AIRLOOPHVAC,PSZ-AC_3:3,Outlet,1
 Parent Node Connection,PSZ-AC_3:3 ZONE EQUIPMENT INLET NODE,AIRLOOPHVAC,PSZ-AC_3:3,Inlet,1
 Parent Node Connection,PSZ-AC_3:3 SUPPLY EQUIPMENT OUTLET NODE,AIRLOOPHVAC,PSZ-AC_3:3,Outlet,1
 Parent Node Connection,PSZ-AC_4:4 SUPPLY EQUIPMENT INLET NODE,AIRLOOPHVAC,PSZ-AC_4:4,Inlet,1
 Parent Node Connection,PSZ-AC_4:4 ZONE EQUIPMENT OUTLET NODE,AIRLOOPHVAC,PSZ-AC_4:4,Outlet,1
 Parent Node Connection,PSZ-AC_4:4 ZONE EQUIPMENT INLET NODE,AIRLOOPHVAC,PSZ-AC_4:4,Inlet,1
 Parent Node Connection,PSZ-AC_4:4 SUPPLY EQUIPMENT OUTLET NODE,AIRLOOPHVAC,PSZ-AC_4:4,Outlet,1
 Parent Node Connection,PSZ-AC_5:5 SUPPLY EQUIPMENT INLET NODE,AIRLOOPHVAC,PSZ-AC_5:5,Inlet,1
 Parent Node Connection,PSZ-AC_5:5 ZONE EQUIPMENT OUTLET NODE,AIRLOOPHVAC,PSZ-AC_5:5,Outlet,1
 Parent Node Connection,PSZ-AC_5:5 ZONE EQUIPMENT INLET NODE,AIRLOOPHVAC,PSZ-AC_5:5,Inlet,1
 Parent Node Connection,PSZ-AC_5:5 SUPPLY EQUIPMENT OUTLET NODE,AIRLOOPHVAC,PSZ-AC_5:5,Outlet,1
 Parent Node Connection,PSZ-AC_6:6 SUPPLY EQUIPMENT INLET NODE,AIRLOOPHVAC,PSZ-AC_6:6,Inlet,1
 Parent Node Connection,PSZ-AC_6:6 ZONE EQUIPMENT OUTLET NODE,AIRLOOPHVAC,PSZ-AC_6:6,Outlet,1
 Parent Node Connection,PSZ-AC_6:6 ZONE EQUIPMENT INLET NODE,AIRLOOPHVAC,PSZ-AC_6:6,Inlet,1
 Parent Node Connection,PSZ-AC_6:6 SUPPLY EQUIPMENT OUTLET NODE,AIRLOOPHVAC,PSZ-AC_6:6,Outlet,1
 Parent Node Connection,PSZ-AC_7:7 SUPPLY EQUIPMENT INLET NODE,AIRLOOPHVAC,PSZ-AC_7:7,Inlet,1
 Parent Node Connection,PSZ-AC_7:7 ZONE EQUIPMENT OUTLET NODE,AIRLOOPHVAC,PSZ-AC_7:7,Outlet,1
 Parent Node Connection,PSZ-AC_7:7 ZONE EQUIPMENT INLET NODE,AIRLOOPHVAC,PSZ-AC_7:7,Inlet,1
 Parent Node Connection,PSZ-AC_7:7 SUPPLY EQUIPMENT OUTLET NODE,AIRLOOPHVAC,PSZ-AC_7:7,Outlet,1
 Parent Node Connection,PSZ-AC_8:8 SUPPLY EQUIPMENT INLET NODE,AIRLOOPHVAC,PSZ-AC_8:8,Inlet,1
 Parent Node Connection,PSZ-AC_8:8 ZONE EQUIPMENT OUTLET NODE,AIRLOOPHVAC,PSZ-AC_8:8,Outlet,1
 Parent Node Connection,PSZ-AC_8:8 ZONE EQUIPMENT INLET NODE,AIRLOOPHVAC,PSZ-AC_8:8,Inlet,1
 Parent Node Connection,PSZ-AC_8:8 SUPPLY EQUIPMENT OUTLET NODE,AIRLOOPHVAC,PSZ-AC_8:8,Outlet,1
 Parent Node Connection,PSZ-AC_9:9 SUPPLY EQUIPMENT INLET NODE,AIRLOOPHVAC,PSZ-AC_9:9,Inlet,1
 Parent Node Connection,PSZ-AC_9:9 ZONE EQUIPMENT OUTLET NODE,AIRLOOPHVAC,PSZ-AC_9:9,Outlet,1
 Parent Node Connection,PSZ-AC_9:9 ZONE EQUIPMENT INLET NODE,AIRLOOPHVAC,PSZ-AC_9:9,Inlet,1
 Parent Node Connection,PSZ-AC_9:9 SUPPLY EQUIPMENT OUTLET NODE,AIRLOOPHVAC,PSZ-AC_9:9,Outlet,1
 Parent Node Connection,PSZ-AC_10:10_OA-PSZ-AC_10:10_UNITARY_PACKAGENODE,AIRLOOPHVAC:UNITARYHEATCOOL,PSZ-AC_10:10_UNITARY_PACKAGE,Inlet,1
 Parent Node Connection,PSZ-AC_10:10 SUPPLY EQUIPMENT OUTLET NODE,AIRLOOPHVAC:UNITARYHEATCOOL,PSZ-AC_10:10_UNITARY_PACKAGE,Outlet,1
 Parent Node Connection,PSZ-AC_1:1_OA-PSZ-AC_1:1_UNITARY_PACKAGENODE,AIRLOOPHVAC:UNITARYHEATCOOL,PSZ-AC_1:1_UNITARY_PACKAGE,Inlet,1
 Parent Node Connection,PSZ-AC_1:1 SUPPLY EQUIPMENT OUTLET NODE,AIRLOOPHVAC:UNITARYHEATCOOL,PSZ-AC_1:1_UNITARY_PACKAGE,Outlet,1
 Parent Node Connection,PSZ-AC_2:2_OA-PSZ-AC_2:2_UNITARY_PACKAGENODE,AIRLOOPHVAC:UNITARYHEATCOOL,PSZ-AC_2:2_UNITARY_PACKAGE,Inlet,1
 Parent Node Connection,PSZ-AC_2:2 SUPPLY EQUIPMENT OUTLET NODE,AIRLOOPHVAC:UNITARYHEATCOOL,PSZ-AC_2:2_UNITARY_PACKAGE,Outlet,1
 Parent Node Connection,PSZ-AC_3:3_OA-PSZ-AC_3:3_UNITARY_PACKAGENODE,AIRLOOPHVAC:UNITARYHEATCOOL,PSZ-AC_3:3_UNITARY_PACKAGE,Inlet,1
 Parent Node Connection,PSZ-AC_3:3 SUPPLY EQUIPMENT OUTLET NODE,AIRLOOPHVAC:UNITARYHEATCOOL,PSZ-AC_3:3_UNITARY_PACKAGE,Outlet,1
 Parent Node Connection,PSZ-AC_4:4_OA-PSZ-AC_4:4_UNITARY_PACKAGENODE,AIRLOOPHVAC:UNITARYHEATCOOL,PSZ-AC_4:4_UNITARY_PACKAGE,Inlet,1
 Parent Node Connection,PSZ-AC_4:4 SUPPLY EQUIPMENT OUTLET NODE,AIRLOOPHVAC:UNITARYHEATCOOL,PSZ-AC_4:4_UNITARY_PACKAGE,Outlet,1
 Parent Node Connection,PSZ-AC_5:5_OA-PSZ-AC_5:5_UNITARY_PACKAGENODE,AIRLOOPHVAC:UNITARYHEATCOOL,PSZ-AC_5:5_UNITARY_PACKAGE,Inlet,1
 Parent Node Connection,PSZ-AC_5:5 SUPPLY EQUIPMENT OUTLET NODE,AIRLOOPHVAC:UNITARYHEATCOOL,PSZ-AC_5:5_UNITARY_PACKAGE,Outlet,1
 Parent Node Connection,PSZ-AC_6:6_OA-PSZ-AC_6:6_UNITARY_PACKAGENODE,AIRLOOPHVAC:UNITARYHEATCOOL,PSZ-AC_6:6_UNITARY_PACKAGE,Inlet,1
 Parent Node Connection,PSZ-AC_6:6 SUPPLY EQUIPMENT OUTLET NODE,AIRLOOPHVAC:UNITARYHEATCOOL,PSZ-AC_6:6_UNITARY_PACKAGE,Outlet,1
 Parent Node Connection,PSZ-AC_7:7_OA-PSZ-AC_7:7_UNITARY_PACKAGENODE,AIRLOOPHVAC:UNITARYHEATCOOL,PSZ-AC_7:7_UNITARY_PACKAGE,Inlet,1
 Parent Node Connection,PSZ-AC_7:7 SUPPLY EQUIPMENT OUTLET NODE,AIRLOOPHVAC:UNITARYHEATCOOL,PSZ-AC_7:7_UNITARY_PACKAGE,Outlet,1
 Parent Node Connection,PSZ-AC_8:8_OA-PSZ-AC_8:8_UNITARY_PACKAGENODE,AIRLOOPHVAC:UNITARYHEATCOOL,PSZ-AC_8:8_UNITARY_PACKAGE,Inlet,1
 Parent Node Connection,PSZ-AC_8:8 SUPPLY EQUIPMENT OUTLET NODE,AIRLOOPHVAC:UNITARYHEATCOOL,PSZ-AC_8:8_UNITARY_PACKAGE,Outlet,1
 Parent Node Connection,PSZ-AC_9:9_OA-PSZ-AC_9:9_UNITARY_PACKAGENODE,AIRLOOPHVAC:UNITARYHEATCOOL,PSZ-AC_9:9_UNITARY_PACKAGE,Inlet,1
 Parent Node Connection,PSZ-AC_9:9 SUPPLY EQUIPMENT OUTLET NODE,AIRLOOPHVAC:UNITARYHEATCOOL,PSZ-AC_9:9_UNITARY_PACKAGE,Outlet,1
! ===============================================================
! <#Non-Parent Node Connections>,<Number of Non-Parent Node Connections>
 #Non-Parent Node Connections,300
! <Non-Parent Node Connection>,<Node Name>,<Node ObjectType>,<Node ObjectName>,<Node ConnectionType>,<Node FluidStream>
 Non-Parent Node Connection,LGSTORE1 AIR NODE,ZONEHVAC:EQUIPMENTCONNECTIONS,LGSTORE1,ZoneNode,1
 Non-Parent Node Connection,LGSTORE1 DIRECT AIR INLET NODE NAME,ZONEHVAC:EQUIPMENTCONNECTIONS,LGSTORE1,ZoneInlet,1
 Non-Parent Node Connection,LGSTORE1 RETURN AIR NODE NAME,ZONEHVAC:EQUIPMENTCONNECTIONS,LGSTORE1,ZoneReturn,1
 Non-Parent Node Connection,LGSTORE2 AIR NODE,ZONEHVAC:EQUIPMENTCONNECTIONS,LGSTORE2,ZoneNode,1
 Non-Parent Node Connection,LGSTORE2 DIRECT AIR INLET NODE NAME,ZONEHVAC:EQUIPMENTCONNECTIONS,LGSTORE2,ZoneInlet,1
 Non-Parent Node Connection,LGSTORE2 RETURN AIR NODE NAME,ZONEHVAC:EQUIPMENTCONNECTIONS,LGSTORE2,ZoneReturn,1
 Non-Parent Node Connection,SMSTORE1 AIR NODE,ZONEHVAC:EQUIPMENTCONNECTIONS,SMSTORE1,ZoneNode,1
 Non-Parent Node Connection,SMSTORE1 DIRECT AIR INLET NODE NAME,ZONEHVAC:EQUIPMENTCONNECTIONS,SMSTORE1,ZoneInlet,1
 Non-Parent Node Connection,SMSTORE1 RETURN AIR NODE NAME,ZONEHVAC:EQUIPMENTCONNECTIONS,SMSTORE1,ZoneReturn,1
 Non-Parent Node Connection,SMSTORE2 AIR NODE,ZONEHVAC:EQUIPMENTCONNECTIONS,SMSTORE2,ZoneNode,1
 Non-Parent Node Connection,SMSTORE2 DIRECT AIR INLET NODE NAME,ZONEHVAC:EQUIPMENTCONNECTIONS,SMSTORE2,ZoneInlet,1
 Non-Parent Node Connection,SMSTORE2 RETURN AIR NODE NAME,ZONEHVAC:EQUIPMENTCONNECTIONS,SMSTORE2,ZoneReturn,1
 Non-Parent Node Connection,SMSTORE3 AIR NODE,ZONEHVAC:EQUIPMENTCONNECTIONS,SMSTORE3,ZoneNode,1
 Non-Parent Node Connection,SMSTORE3 DIRECT AIR INLET NODE NAME,ZONEHVAC:EQUIPMENTCONNECTIONS,SMSTORE3,ZoneInlet,1
 Non-Parent Node Connection,SMSTORE3 RETURN AIR NODE NAME,ZONEHVAC:EQUIPMENTCONNECTIONS,SMSTORE3,ZoneReturn,1
 Non-Parent Node Connection,SMSTORE4 AIR NODE,ZONEHVAC:EQUIPMENTCONNECTIONS,SMSTORE4,ZoneNode,1
 Non-Parent Node Connection,SMSTORE4 DIRECT AIR INLET NODE NAME,ZONEHVAC:EQUIPMENTCONNECTIONS,SMSTORE4,ZoneInlet,1
 Non-Parent Node Connection,SMSTORE4 RETURN AIR NODE NAME,ZONEHVAC:EQUIPMENTCONNECTIONS,SMSTORE4,ZoneReturn,1
 Non-Parent Node Connection,SMSTORE5 AIR NODE,ZONEHVAC:EQUIPMENTCONNECTIONS,SMSTORE5,ZoneNode,1
 Non-Parent Node Connection,SMSTORE5 DIRECT AIR INLET NODE NAME,ZONEHVAC:EQUIPMENTCONNECTIONS,SMSTORE5,ZoneInlet,1
 Non-Parent Node Connection,SMSTORE5 RETURN AIR NODE NAME,ZONEHVAC:EQUIPMENTCONNECTIONS,SMSTORE5,ZoneReturn,1
 Non-Parent Node Connection,SMSTORE6 AIR NODE,ZONEHVAC:EQUIPMENTCONNECTIONS,SMSTORE6,ZoneNode,1
 Non-Parent Node Connection,SMSTORE6 DIRECT AIR INLET NODE NAME,ZONEHVAC:EQUIPMENTCONNECTIONS,SMSTORE6,ZoneInlet,1
 Non-Parent Node Connection,SMSTORE6 RETURN AIR NODE NAME,ZONEHVAC:EQUIPMENTCONNECTIONS,SMSTORE6,ZoneReturn,1
 Non-Parent Node Connection,SMSTORE7 AIR NODE,ZONEHVAC:EQUIPMENTCONNECTIONS,SMSTORE7,ZoneNode,1
 Non-Parent Node Connection,SMSTORE7 DIRECT AIR INLET NODE NAME,ZONEHVAC:EQUIPMENTCONNECTIONS,SMSTORE7,ZoneInlet,1
 Non-Parent Node Connection,SMSTORE7 RETURN AIR NODE NAME,ZONEHVAC:EQUIPMENTCONNECTIONS,SMSTORE7,ZoneReturn,1
 Non-Parent Node Connection,SMSTORE8 AIR NODE,ZONEHVAC:EQUIPMENTCONNECTIONS,SMSTORE8,ZoneNode,1
 Non-Parent Node Connection,SMSTORE8 DIRECT AIR INLET NODE NAME,ZONEHVAC:EQUIPMENTCONNECTIONS,SMSTORE8,ZoneInlet,1
 Non-Parent Node Connection,SMSTORE8 RETURN AIR NODE NAME,ZONEHVAC:EQUIPMENTCONNECTIONS,SMSTORE8,ZoneReturn,1
 Non-Parent Node Connection,PSZ-AC_10:10_OAINLET NODE,OUTDOORAIR:NODELIST,OutdoorAir:NodeList,OutdoorAir,1
 Non-Parent Node Connection,PSZ-AC_1:1_OAINLET NODE,OUTDOORAIR:NODELIST,OutdoorAir:NodeList,OutdoorAir,2
 Non-Parent Node Connection,PSZ-AC_2:2_OAINLET NODE,OUTDOORAIR:NODELIST,OutdoorAir:NodeList,OutdoorAir,3
 Non-Parent Node Connection,PSZ-AC_3:3_OAINLET NODE,OUTDOORAIR:NODELIST,OutdoorAir:NodeList,OutdoorAir,4
 Non-Parent Node Connection,PSZ-AC_4:4_OAINLET NODE,OUTDOORAIR:NODELIST,OutdoorAir:NodeList,OutdoorAir,5
 Non-Parent Node Connection,PSZ-AC_5:5_OAINLET NODE,OUTDOORAIR:NODELIST,OutdoorAir:NodeList,OutdoorAir,6
 Non-Parent Node Connection,PSZ-AC_6:6_OAINLET NODE,OUTDOORAIR:NODELIST,OutdoorAir:NodeList,OutdoorAir,7
 Non-Parent Node Connection,PSZ-AC_7:7_OAINLET NODE,OUTDOORAIR:NODELIST,OutdoorAir:NodeList,OutdoorAir,8
 Non-Parent Node Connection,PSZ-AC_8:8_OAINLET NODE,OUTDOORAIR:NODELIST,OutdoorAir:NodeList,OutdoorAir,9
 Non-Parent Node Connection,PSZ-AC_9:9_OAINLET NODE,OUTDOORAIR:NODELIST,OutdoorAir:NodeList,OutdoorAir,10
 Non-Parent Node Connection,LGSTORE1 AIR NODE,SETPOINTMANAGER:SINGLEZONE:REHEAT,SUPAIRTEMP MNGRLGSTORE1,Sensor,1
 Non-Parent Node Connection,LGSTORE1 DIRECT AIR INLET NODE NAME,SETPOINTMANAGER:SINGLEZONE:REHEAT,SUPAIRTEMP MNGRLGSTORE1,Sensor,1
 Non-Parent Node Connection,PSZ-AC_1:1 SUPPLY EQUIPMENT OUTLET NODE,SETPOINTMANAGER:SINGLEZONE:REHEAT,SUPAIRTEMP MNGRLGSTORE1,Setpoint,1
 Non-Parent Node Connection,LGSTORE2 AIR NODE,SETPOINTMANAGER:SINGLEZONE:REHEAT,SUPAIRTEMP MNGRLGSTORE2,Sensor,1
 Non-Parent Node Connection,LGSTORE2 DIRECT AIR INLET NODE NAME,SETPOINTMANAGER:SINGLEZONE:REHEAT,SUPAIRTEMP MNGRLGSTORE2,Sensor,1
 Non-Parent Node Connection,PSZ-AC_6:6 SUPPLY EQUIPMENT OUTLET NODE,SETPOINTMANAGER:SINGLEZONE:REHEAT,SUPAIRTEMP MNGRLGSTORE2,Setpoint,1
 Non-Parent Node Connection,SMSTORE1 AIR NODE,SETPOINTMANAGER:SINGLEZONE:REHEAT,SUPAIRTEMP MNGRSMSTORE1,Sensor,1
 Non-Parent Node Connection,SMSTORE1 DIRECT AIR INLET NODE NAME,SETPOINTMANAGER:SINGLEZONE:REHEAT,SUPAIRTEMP MNGRSMSTORE1,Sensor,1
 Non-Parent Node Connection,PSZ-AC_2:2 SUPPLY EQUIPMENT OUTLET NODE,SETPOINTMANAGER:SINGLEZONE:REHEAT,SUPAIRTEMP MNGRSMSTORE1,Setpoint,1
 Non-Parent Node Connection,SMSTORE2 AIR NODE,SETPOINTMANAGER:SINGLEZONE:REHEAT,SUPAIRTEMP MNGRSMSTORE2,Sensor,1
 Non-Parent Node Connection,SMSTORE2 DIRECT AIR INLET NODE NAME,SETPOINTMANAGER:SINGLEZONE:REHEAT,SUPAIRTEMP MNGRSMSTORE2,Sensor,1
 Non-Parent Node Connection,PSZ-AC_3:3 SUPPLY EQUIPMENT OUTLET NODE,SETPOINTMANAGER:SINGLEZONE:REHEAT,SUPAIRTEMP MNGRSMSTORE2,Setpoint,1
 Non-Parent Node Connection,SMSTORE3 AIR NODE,SETPOINTMANAGER:SINGLEZONE:REHEAT,SUPAIRTEMP MNGRSMSTORE3,Sensor,1
 Non-Parent Node Connection,SMSTORE3 DIRECT AIR INLET NODE NAME,SETPOINTMANAGER:SINGLEZONE:REHEAT,SUPAIRTEMP MNGRSMSTORE3,Sensor,1
 Non-Parent Node Connection,PSZ-AC_4:4 SUPPLY EQUIPMENT OUTLET NODE,SETPOINTMANAGER:SINGLEZONE:REHEAT,SUPAIRTEMP MNGRSMSTORE3,Setpoint,1
 Non-Parent Node Connection,SMSTORE4 AIR NODE,SETPOINTMANAGER:SINGLEZONE:REHEAT,SUPAIRTEMP MNGRSMSTORE4,Sensor,1
 Non-Parent Node Connection,SMSTORE4 DIRECT AIR INLET NODE NAME,SETPOINTMANAGER:SINGLEZONE:REHEAT,SUPAIRTEMP MNGRSMSTORE4,Sensor,1
 Non-Parent Node Connection,PSZ-AC_5:5 SUPPLY EQUIPMENT OUTLET NODE,SETPOINTMANAGER:SINGLEZONE:REHEAT,SUPAIRTEMP MNGRSMSTORE4,Setpoint,1
 Non-Parent Node Connection,SMSTORE5 AIR NODE,SETPOINTMANAGER:SINGLEZONE:REHEAT,SUPAIRTEMP MNGRSMSTORE5,Sensor,1
 Non-Parent Node Connection,SMSTORE5 DIRECT AIR INLET NODE NAME,SETPOINTMANAGER:SINGLEZONE:REHEAT,SUPAIRTEMP MNGRSMSTORE5,Sensor,1
 Non-Parent Node Connection,PSZ-AC_7:7 SUPPLY EQUIPMENT OUTLET NODE,SETPOINTMANAGER:SINGLEZONE:REHEAT,SUPAIRTEMP MNGRSMSTORE5,Setpoint,1
 Non-Parent Node Connection,SMSTORE6 AIR NODE,SETPOINTMANAGER:SINGLEZONE:REHEAT,SUPAIRTEMP MNGRSMSTORE6,Sensor,1
 Non-Parent Node Connection,SMSTORE6 DIRECT AIR INLET NODE NAME,SETPOINTMANAGER:SINGLEZONE:REHEAT,SUPAIRTEMP MNGRSMSTORE6,Sensor,1
 Non-Parent Node Connection,PSZ-AC_8:8 SUPPLY EQUIPMENT OUTLET NODE,SETPOINTMANAGER:SINGLEZONE:REHEAT,SUPAIRTEMP MNGRSMSTORE6,Setpoint,1
 Non-Parent Node Connection,SMSTORE7 AIR NODE,SETPOINTMANAGER:SINGLEZONE:REHEAT,SUPAIRTEMP MNGRSMSTORE7,Sensor,1
 Non-Parent Node Connection,SMSTORE7 DIRECT AIR INLET NODE NAME,SETPOINTMANAGER:SINGLEZONE:REHEAT,SUPAIRTEMP MNGRSMSTORE7,Sensor,1
 Non-Parent Node Connection,PSZ-AC_9:9 SUPPLY EQUIPMENT OUTLET NODE,SETPOINTMANAGER:SINGLEZONE:REHEAT,SUPAIRTEMP MNGRSMSTORE7,Setpoint,1
 Non-Parent Node Connection,SMSTORE8 AIR NODE,SETPOINTMANAGER:SINGLEZONE:REHEAT,SUPAIRTEMP MNGRSMSTORE8,Sensor,1
 Non-Parent Node Connection,SMSTORE8 DIRECT AIR INLET NODE NAME,SETPOINTMANAGER:SINGLEZONE:REHEAT,SUPAIRTEMP MNGRSMSTORE8,Sensor,1
 Non-Parent Node Connection,PSZ-AC_10:10 SUPPLY EQUIPMENT OUTLET NODE,SETPOINTMANAGER:SINGLEZONE:REHEAT,SUPAIRTEMP MNGRSMSTORE8,Setpoint,1
 Non-Parent Node Connection,PSZ-AC_10:10 SUPPLY EQUIPMENT OUTLET NODE,SETPOINTMANAGER:MIXEDAIR,PSZ-AC_10:10_OAMIXED AIR TEMP MANAGER,Sensor,1
 Non-Parent Node Connection,PSZ-AC_10:10_OA-PSZ-AC_10:10_UNITARY_PACKAGENODE,SETPOINTMANAGER:MIXEDAIR,PSZ-AC_10:10_OAMIXED AIR TEMP MANAGER,Sensor,1
 Non-Parent Node Connection,PSZ-AC_10:10_UNITARY_PACKAGEHEATCOIL AIR INLET,SETPOINTMANAGER:MIXEDAIR,PSZ-AC_10:10_OAMIXED AIR TEMP MANAGER,Sensor,1
 Non-Parent Node Connection,PSZ-AC_10:10_OA-PSZ-AC_10:10_UNITARY_PACKAGENODE,SETPOINTMANAGER:MIXEDAIR,PSZ-AC_10:10_OAMIXED AIR TEMP MANAGER,Setpoint,1
 Non-Parent Node Connection,PSZ-AC_1:1 SUPPLY EQUIPMENT OUTLET NODE,SETPOINTMANAGER:MIXEDAIR,PSZ-AC_1:1_OAMIXED AIR TEMP MANAGER,Sensor,1
 Non-Parent Node Connection,PSZ-AC_1:1_OA-PSZ-AC_1:1_UNITARY_PACKAGENODE,SETPOINTMANAGER:MIXEDAIR,PSZ-AC_1:1_OAMIXED AIR TEMP MANAGER,Sensor,1
 Non-Parent Node Connection,PSZ-AC_1:1_UNITARY_PACKAGEHEATCOIL AIR INLET,SETPOINTMANAGER:MIXEDAIR,PSZ-AC_1:1_OAMIXED AIR TEMP MANAGER,Sensor,1
 Non-Parent Node Connection,PSZ-AC_1:1_OA-PSZ-AC_1:1_UNITARY_PACKAGENODE,SETPOINTMANAGER:MIXEDAIR,PSZ-AC_1:1_OAMIXED AIR TEMP MANAGER,Setpoint,1
 Non-Parent Node Connection,PSZ-AC_2:2 SUPPLY EQUIPMENT OUTLET NODE,SETPOINTMANAGER:MIXEDAIR,PSZ-AC_2:2_OAMIXED AIR TEMP MANAGER,Sensor,1
 Non-Parent Node Connection,PSZ-AC_2:2_OA-PSZ-AC_2:2_UNITARY_PACKAGENODE,SETPOINTMANAGER:MIXEDAIR,PSZ-AC_2:2_OAMIXED AIR TEMP MANAGER,Sensor,1
 Non-Parent Node Connection,PSZ-AC_2:2_UNITARY_PACKAGEHEATCOIL AIR INLET,SETPOINTMANAGER:MIXEDAIR,PSZ-AC_2:2_OAMIXED AIR TEMP MANAGER,Sensor,1
 Non-Parent Node Connection,PSZ-AC_2:2_OA-PSZ-AC_2:2_UNITARY_PACKAGENODE,SETPOINTMANAGER:MIXEDAIR,PSZ-AC_2:2_OAMIXED AIR TEMP MANAGER,Setpoint,1
 Non-Parent Node Connection,PSZ-AC_3:3 SUPPLY EQUIPMENT OUTLET NODE,SETPOINTMANAGER:MIXEDAIR,PSZ-AC_3:3_OAMIXED AIR TEMP MANAGER,Sensor,1
 Non-Parent Node Connection,PSZ-AC_3:3_OA-PSZ-AC_3:3_UNITARY_PACKAGENODE,SETPOINTMANAGER:MIXEDAIR,PSZ-AC_3:3_OAMIXED AIR TEMP MANAGER,Sensor,1
 Non-Parent Node Connection,PSZ-AC_3:3_UNITARY_PACKAGEHEATCOIL AIR INLET,SETPOINTMANAGER:MIXEDAIR,PSZ-AC_3:3_OAMIXED AIR TEMP MANAGER,Sensor,1
 Non-Parent Node Connection,PSZ-AC_3:3_OA-PSZ-AC_3:3_UNITARY_PACKAGENODE,SETPOINTMANAGER:MIXEDAIR,PSZ-AC_3:3_OAMIXED AIR TEMP MANAGER,Setpoint,1
 Non-Parent Node Connection,PSZ-AC_4:4 SUPPLY EQUIPMENT OUTLET NODE,SETPOINTMANAGER:MIXEDAIR,PSZ-AC_4:4_OAMIXED AIR TEMP MANAGER,Sensor,1
 Non-Parent Node Connection,PSZ-AC_4:4_OA-PSZ-AC_4:4_UNITARY_PACKAGENODE,SETPOINTMANAGER:MIXEDAIR,PSZ-AC_4:4_OAMIXED AIR TEMP MANAGER,Sensor,1
 Non-Parent Node Connection,PSZ-AC_4:4_UNITARY_PACKAGEHEATCOIL AIR INLET,SETPOINTMANAGER:MIXEDAIR,PSZ-AC_4:4_OAMIXED AIR TEMP MANAGER,Sensor,1
 Non-Parent Node Connection,PSZ-AC_4:4_OA-PSZ-AC_4:4_UNITARY_PACKAGENODE,SETPOINTMANAGER:MIXEDAIR,PSZ-AC_4:4_OAMIXED AIR TEMP MANAGER,Setpoint,1
 Non-Parent Node Connection,PSZ-AC_5:5 SUPPLY EQUIPMENT OUTLET NODE,SETPOINTMANAGER:MIXEDAIR,PSZ-AC_5:5_OAMIXED AIR TEMP MANAGER,Sensor,1
 Non-Parent Node Connection,PSZ-AC_5:5_OA-PSZ-AC_5:5_UNITARY_PACKAGENODE,SETPOINTMANAGER:MIXEDAIR,PSZ-AC_5:5_OAMIXED AIR TEMP MANAGER,Sensor,1
 Non-Parent Node Connection,PSZ-AC_5:5_UNITARY_PACKAGEHEATCOIL AIR INLET,SETPOINTMANAGER:MIXEDAIR,PSZ-AC_5:5_OAMIXED AIR TEMP MANAGER,Sensor,1
 Non-Parent Node Connection,PSZ-AC_5:5_OA-PSZ-AC_5:5_UNITARY_PACKAGENODE,SETPOINTMANAGER:MIXEDAIR,PSZ-AC_5:5_OAMIXED AIR TEMP MANAGER,Setpoint,1
 Non-Parent Node Connection,PSZ-AC_6:6 SUPPLY EQUIPMENT OUTLET NODE,SETPOINTMANAGER:MIXEDAIR,PSZ-AC_6:6_OAMIXED AIR TEMP MANAGER,Sensor,1
 Non-Parent Node Connection,PSZ-AC_6:6_OA-PSZ-AC_6:6_UNITARY_PACKAGENODE,SETPOINTMANAGER:MIXEDAIR,PSZ-AC_6:6_OAMIXED AIR TEMP MANAGER,Sensor,1
 Non-Parent Node Connection,PSZ-AC_6:6_UNITARY_PACKAGEHEATCOIL AIR INLET,SETPOINTMANAGER:MIXEDAIR,PSZ-AC_6:6_OAMIXED AIR TEMP MANAGER,Sensor,1
 Non-Parent Node Connection,PSZ-AC_6:6_OA-PSZ-AC_6:6_UNITARY_PACKAGENODE,SETPOINTMANAGER:MIXEDAIR,PSZ-AC_6:6_OAMIXED AIR TEMP MANAGER,Setpoint,1
 Non-Parent Node Connection,PSZ-AC_7:7 SUPPLY EQUIPMENT OUTLET NODE,SETPOINTMANAGER:MIXEDAIR,PSZ-AC_7:7_OAMIXED AIR TEMP MANAGER,Sensor,1
 Non-Parent Node Connection,PSZ-AC_7:7_OA-PSZ-AC_7:7_UNITARY_PACKAGENODE,SETPOINTMANAGER:MIXEDAIR,PSZ-AC_7:7_OAMIXED AIR TEMP MANAGER,Sensor,1
 Non-Parent Node Connection,PSZ-AC_7:7_UNITARY_PACKAGEHEATCOIL AIR INLET,SETPOINTMANAGER:MIXEDAIR,PSZ-AC_7:7_OAMIXED AIR TEMP MANAGER,Sensor,1
 Non-Parent Node Connection,PSZ-AC_7:7_OA-PSZ-AC_7:7_UNITARY_PACKAGENODE,SETPOINTMANAGER:MIXEDAIR,PSZ-AC_7:7_OAMIXED AIR TEMP MANAGER,Setpoint,1
 Non-Parent Node Connection,PSZ-AC_8:8 SUPPLY EQUIPMENT OUTLET NODE,SETPOINTMANAGER:MIXEDAIR,PSZ-AC_8:8_OAMIXED AIR TEMP MANAGER,Sensor,1
 Non-Parent Node Connection,PSZ-AC_8:8_OA-PSZ-AC_8:8_UNITARY_PACKAGENODE,SETPOINTMANAGER:MIXEDAIR,PSZ-AC_8:8_OAMIXED AIR TEMP MANAGER,Sensor,1
 Non-Parent Node Connection,PSZ-AC_8:8_UNITARY_PACKAGEHEATCOIL AIR INLET,SETPOINTMANAGER:MIXEDAIR,PSZ-AC_8:8_OAMIXED AIR TEMP MANAGER,Sensor,1
 Non-Parent Node Connection,PSZ-AC_8:8_OA-PSZ-AC_8:8_UNITARY_PACKAGENODE,SETPOINTMANAGER:MIXEDAIR,PSZ-AC_8:8_OAMIXED AIR TEMP MANAGER,Setpoint,1
 Non-Parent Node Connection,PSZ-AC_9:9 SUPPLY EQUIPMENT OUTLET NODE,SETPOINTMANAGER:MIXEDAIR,PSZ-AC_9:9_OAMIXED AIR TEMP MANAGER,Sensor,1
 Non-Parent Node Connection,PSZ-AC_9:9_OA-PSZ-AC_9:9_UNITARY_PACKAGENODE,SETPOINTMANAGER:MIXEDAIR,PSZ-AC_9:9_OAMIXED AIR TEMP MANAGER,Sensor,1
 Non-Parent Node Connection,PSZ-AC_9:9_UNITARY_PACKAGEHEATCOIL AIR INLET,SETPOINTMANAGER:MIXEDAIR,PSZ-AC_9:9_OAMIXED AIR TEMP MANAGER,Sensor,1
 Non-Parent Node Connection,PSZ-AC_9:9_OA-PSZ-AC_9:9_UNITARY_PACKAGENODE,SETPOINTMANAGER:MIXEDAIR,PSZ-AC_9:9_OAMIXED AIR TEMP MANAGER,Setpoint,1
 Non-Parent Node Connection,PSZ-AC_10:10 ZONE EQUIPMENT INLET NODE,AIRLOOPHVAC:ZONESPLITTER,PSZ-AC_10:10 SUPPLY AIR SPLITTER,Inlet,1
 Non-Parent Node Connection,SMSTORE8 DIRECT AIR INLET NODE NAME,AIRLOOPHVAC:ZONESPLITTER,PSZ-AC_10:10 SUPPLY AIR SPLITTER,Outlet,1
 Non-Parent Node Connection,PSZ-AC_1:1 ZONE EQUIPMENT INLET NODE,AIRLOOPHVAC:ZONESPLITTER,PSZ-AC_1:1 SUPPLY AIR SPLITTER,Inlet,1
 Non-Parent Node Connection,LGSTORE1 DIRECT AIR INLET NODE NAME,AIRLOOPHVAC:ZONESPLITTER,PSZ-AC_1:1 SUPPLY AIR SPLITTER,Outlet,1
 Non-Parent Node Connection,PSZ-AC_2:2 ZONE EQUIPMENT INLET NODE,AIRLOOPHVAC:ZONESPLITTER,PSZ-AC_2:2 SUPPLY AIR SPLITTER,Inlet,1
 Non-Parent Node Connection,SMSTORE1 DIRECT AIR INLET NODE NAME,AIRLOOPHVAC:ZONESPLITTER,PSZ-AC_2:2 SUPPLY AIR SPLITTER,Outlet,1
 Non-Parent Node Connection,PSZ-AC_3:3 ZONE EQUIPMENT INLET NODE,AIRLOOPHVAC:ZONESPLITTER,PSZ-AC_3:3 SUPPLY AIR SPLITTER,Inlet,1
 Non-Parent Node Connection,SMSTORE2 DIRECT AIR INLET NODE NAME,AIRLOOPHVAC:ZONESPLITTER,PSZ-AC_3:3 SUPPLY AIR SPLITTER,Outlet,1
 Non-Parent Node Connection,PSZ-AC_4:4 ZONE EQUIPMENT INLET NODE,AIRLOOPHVAC:ZONESPLITTER,PSZ-AC_4:4 SUPPLY AIR SPLITTER,Inlet,1
 Non-Parent Node Connection,SMSTORE3 DIRECT AIR INLET NODE NAME,AIRLOOPHVAC:ZONESPLITTER,PSZ-AC_4:4 SUPPLY AIR SPLITTER,Outlet,1
 Non-Parent Node Connection,PSZ-AC_5:5 ZONE EQUIPMENT INLET NODE,AIRLOOPHVAC:ZONESPLITTER,PSZ-AC_5:5 SUPPLY AIR SPLITTER,Inlet,1
 Non-Parent Node Connection,SMSTORE4 DIRECT AIR INLET NODE NAME,AIRLOOPHVAC:ZONESPLITTER,PSZ-AC_5:5 SUPPLY AIR SPLITTER,Outlet,1
 Non-Parent Node Connection,PSZ-AC_6:6 ZONE EQUIPMENT INLET NODE,AIRLOOPHVAC:ZONESPLITTER,PSZ-AC_6:6 SUPPLY AIR SPLITTER,Inlet,1
 Non-Parent Node Connection,LGSTORE2 DIRECT AIR INLET NODE NAME,AIRLOOPHVAC:ZONESPLITTER,PSZ-AC_6:6 SUPPLY AIR SPLITTER,Outlet,1
 Non-Parent Node Connection,PSZ-AC_7:7 ZONE EQUIPMENT INLET NODE,AIRLOOPHVAC:ZONESPLITTER,PSZ-AC_7:7 SUPPLY AIR SPLITTER,Inlet,1
 Non-Parent Node Connection,SMSTORE5 DIRECT AIR INLET NODE NAME,AIRLOOPHVAC:ZONESPLITTER,PSZ-AC_7:7 SUPPLY AIR SPLITTER,Outlet,1
[...]
 Non-Parent Node Connection,SMSTORE7 DIRECT AIR INLET NODE NAME,AIRTERMINAL:SINGLEDUCT:UNCONTROLLED,SMSTORE7 DIRECT AIR,Outlet,1
 Non-Parent Node Connection,SMSTORE8 DIRECT AIR INLET NODE NAME,AIRTERMINAL:SINGLEDUCT:UNCONTROLLED,SMSTORE8 DIRECT AIR,Outlet,1
 Non-Parent Node Connection,PSZ-AC_10:10 ZONE EQUIPMENT OUTLET NODE,AIRLOOPHVAC:ZONEMIXER,PSZ-AC_10:10 RETURN AIR MIXER,Outlet,1
 Non-Parent Node Connection,SMSTORE8 RETURN AIR NODE NAME,AIRLOOPHVAC:ZONEMIXER,PSZ-AC_10:10 RETURN AIR MIXER,Inlet,1
 Non-Parent Node Connection,PSZ-AC_1:1 ZONE EQUIPMENT OUTLET NODE,AIRLOOPHVAC:ZONEMIXER,PSZ-AC_1:1 RETURN AIR MIXER,Outlet,1
 Non-Parent Node Connection,LGSTORE1 RETURN AIR NODE NAME,AIRLOOPHVAC:ZONEMIXER,PSZ-AC_1:1 RETURN AIR MIXER,Inlet,1
 Non-Parent Node Connection,PSZ-AC_2:2 ZONE EQUIPMENT OUTLET NODE,AIRLOOPHVAC:ZONEMIXER,PSZ-AC_2:2 RETURN AIR MIXER,Outlet,1
 Non-Parent Node Connection,SMSTORE1 RETURN AIR NODE NAME,AIRLOOPHVAC:ZONEMIXER,PSZ-AC_2:2 RETURN AIR MIXER,Inlet,1
 Non-Parent Node Connection,PSZ-AC_3:3 ZONE EQUIPMENT OUTLET NODE,AIRLOOPHVAC:ZONEMIXER,PSZ-AC_3:3 RETURN AIR MIXER,Outlet,1
 Non-Parent Node Connection,SMSTORE2 RETURN AIR NODE NAME,AIRLOOPHVAC:ZONEMIXER,PSZ-AC_3:3 RETURN AIR MIXER,Inlet,1
 Non-Parent Node Connection,PSZ-AC_4:4 ZONE EQUIPMENT OUTLET NODE,AIRLOOPHVAC:ZONEMIXER,PSZ-AC_4:4 RETURN AIR MIXER,Outlet,1
 Non-Parent Node Connection,SMSTORE3 RETURN AIR NODE NAME,AIRLOOPHVAC:ZONEMIXER,PSZ-AC_4:4 RETURN AIR MIXER,Inlet,1
 Non-Parent Node Connection,PSZ-AC_5:5 ZONE EQUIPMENT OUTLET NODE,AIRLOOPHVAC:ZONEMIXER,PSZ-AC_5:5 RETURN AIR MIXER,Outlet,1
 Non-Parent Node Connection,SMSTORE4 RETURN AIR NODE NAME,AIRLOOPHVAC:ZONEMIXER,PSZ-AC_5:5 RETURN AIR MIXER,Inlet,1
 Non-Parent Node Connection,PSZ-AC_6:6 ZONE EQUIPMENT OUTLET NODE,AIRLOOPHVAC:ZONEMIXER,PSZ-AC_6:6 RETURN AIR MIXER,Outlet,1
 Non-Parent Node Connection,LGSTORE2 RETURN AIR NODE NAME,AIRLOOPHVAC:ZONEMIXER,PSZ-AC_6:6 RETURN AIR MIXER,Inlet,1
 Non-Parent Node Connection,PSZ-AC_7:7 ZONE EQUIPMENT OUTLET NODE,AIRLOOPHVAC:ZONEMIXER,PSZ-AC_7:7 RETURN AIR MIXER,Outlet,1
 Non-Parent Node Connection,SMSTORE5 RETURN AIR NODE NAME,AIRLOOPHVAC:ZONEMIXER,PSZ-AC_7:7 RETURN AIR MIXER,Inlet,1
 Non-Parent Node Connection,PSZ-AC_8:8 ZONE EQUIPMENT OUTLET NODE,AIRLOOPHVAC:ZONEMIXER,PSZ-AC_8:8 RETURN AIR MIXER,Outlet,1
 Non-Parent Node Connection,SMSTORE6 RETURN AIR NODE NAME,AIRLOOPHVAC:ZONEMIXER,PSZ-AC_8:8 RETURN AIR MIXER,Inlet,1
 Non-Parent Node Connection,PSZ-AC_9:9 ZONE EQUIPMENT OUTLET NODE,AIRLOOPHVAC:ZONEMIXER,PSZ-AC_9:9 RETURN AIR MIXER,Outlet,1
 Non-Parent Node Connection,SMSTORE7 RETURN AIR NODE NAME,AIRLOOPHVAC:ZONEMIXER,PSZ-AC_9:9 RETURN AIR MIXER,Inlet,1
 Non-Parent Node Connection,PSZ-AC_10:10_OA-PSZ-AC_10:10_UNITARY_PACKAGENODE,OUTDOORAIR:MIXER,PSZ-AC_10:10_OAMIXING BOX,Outlet,1
 Non-Parent Node Connection,PSZ-AC_10:10_OAINLET NODE,OUTDOORAIR:MIXER,PSZ-AC_10:10_OAMIXING BOX,Inlet,1
 Non-Parent Node Connection,PSZ-AC_10:10_OARELIEF NODE,OUTDOORAIR:MIXER,PSZ-AC_10:10_OAMIXING BOX,ReliefAir,1
 Non-Parent Node Connection,PSZ-AC_10:10 SUPPLY EQUIPMENT INLET NODE,OUTDOORAIR:MIXER,PSZ-AC_10:10_OAMIXING BOX,Inlet,1
 Non-Parent Node Connection,PSZ-AC_1:1_OA-PSZ-AC_1:1_UNITARY_PACKAGENODE,OUTDOORAIR:MIXER,PSZ-AC_1:1_OAMIXING BOX,Outlet,1
 Non-Parent Node Connection,PSZ-AC_1:1_OAINLET NODE,OUTDOORAIR:MIXER,PSZ-AC_1:1_OAMIXING BOX,Inlet,1
 Non-Parent Node Connection,PSZ-AC_1:1_OARELIEF NODE,OUTDOORAIR:MIXER,PSZ-AC_1:1_OAMIXING BOX,ReliefAir,1
 Non-Parent Node Connection,PSZ-AC_1:1 SUPPLY EQUIPMENT INLET NODE,OUTDOORAIR:MIXER,PSZ-AC_1:1_OAMIXING BOX,Inlet,1
 Non-Parent Node Connection,PSZ-AC_2:2_OA-PSZ-AC_2:2_UNITARY_PACKAGENODE,OUTDOORAIR:MIXER,PSZ-AC_2:2_OAMIXING BOX,Outlet,1
 Non-Parent Node Connection,PSZ-AC_2:2_OAINLET NODE,OUTDOORAIR:MIXER,PSZ-AC_2:2_OAMIXING BOX,Inlet,1
 Non-Parent Node Connection,PSZ-AC_2:2_OARELIEF NODE,OUTDOORAIR:MIXER,PSZ-AC_2:2_OAMIXING BOX,ReliefAir,1
 Non-Parent Node Connection,PSZ-AC_2:2 SUPPLY EQUIPMENT INLET NODE,OUTDOORAIR:MIXER,PSZ-AC_2:2_OAMIXING BOX,Inlet,1
 Non-Parent Node Connection,PSZ-AC_3:3_OA-PSZ-AC_3:3_UNITARY_PACKAGENODE,OUTDOORAIR:MIXER,PSZ-AC_3:3_OAMIXING BOX,Outlet,1
 Non-Parent Node Connection,PSZ-AC_3:3_OAINLET NODE,OUTDOORAIR:MIXER,PSZ-AC_3:3_OAMIXING BOX,Inlet,1
 Non-Parent Node Connection,PSZ-AC_3:3_OARELIEF NODE,OUTDOORAIR:MIXER,PSZ-AC_3:3_OAMIXING BOX,ReliefAir,1
 Non-Parent Node Connection,PSZ-AC_3:3 SUPPLY EQUIPMENT INLET NODE,OUTDOORAIR:MIXER,PSZ-AC_3:3_OAMIXING BOX,Inlet,1
 Non-Parent Node Connection,PSZ-AC_4:4_OA-PSZ-AC_4:4_UNITARY_PACKAGENODE,OUTDOORAIR:MIXER,PSZ-AC_4:4_OAMIXING BOX,Outlet,1
 Non-Parent Node Connection,PSZ-AC_4:4_OAINLET NODE,OUTDOORAIR:MIXER,PSZ-AC_4:4_OAMIXING BOX,Inlet,1
 Non-Parent Node Connection,PSZ-AC_4:4_OARELIEF NODE,OUTDOORAIR:MIXER,PSZ-AC_4:4_OAMIXING BOX,ReliefAir,1
 Non-Parent Node Connection,PSZ-AC_4:4 SUPPLY EQUIPMENT INLET NODE,OUTDOORAIR:MIXER,PSZ-AC_4:4_OAMIXING BOX,Inlet,1
 Non-Parent Node Connection,PSZ-AC_5:5_OA-PSZ-AC_5:5_UNITARY_PACKAGENODE,OUTDOORAIR:MIXER,PSZ-AC_5:5_OAMIXING BOX,Outlet,1
 Non-Parent Node Connection,PSZ-AC_5:5_OAINLET NODE,OUTDOORAIR:MIXER,PSZ-AC_5:5_OAMIXING BOX,Inlet,1
 Non-Parent Node Connection,PSZ-AC_5:5_OARELIEF NODE,OUTDOORAIR:MIXER,PSZ-AC_5:5_OAMIXING BOX,ReliefAir,1
 Non-Parent Node Connection,PSZ-AC_5:5 SUPPLY EQUIPMENT INLET NODE,OUTDOORAIR:MIXER,PSZ-AC_5:5_OAMIXING BOX,Inlet,1
 Non-Parent Node Connection,PSZ-AC_6:6_OA-PSZ-AC_6:6_UNITARY_PACKAGENODE,OUTDOORAIR:MIXER,PSZ-AC_6:6_OAMIXING BOX,Outlet,1
 Non-Parent Node Connection,PSZ-AC_6:6_OAINLET NODE,OUTDOORAIR:MIXER,PSZ-AC_6:6_OAMIXING BOX,Inlet,1
 Non-Parent Node Connection,PSZ-AC_6:6_OARELIEF NODE,OUTDOORAIR:MIXER,PSZ-AC_6:6_OAMIXING BOX,ReliefAir,1
 Non-Parent Node Connection,PSZ-AC_6:6 SUPPLY EQUIPMENT INLET NODE,OUTDOORAIR:MIXER,PSZ-AC_6:6_OAMIXING BOX,Inlet,1
 Non-Parent Node Connection,PSZ-AC_7:7_OA-PSZ-AC_7:7_UNITARY_PACKAGENODE,OUTDOORAIR:MIXER,PSZ-AC_7:7_OAMIXING BOX,Outlet,1
 Non-Parent Node Connection,PSZ-AC_7:7_OAINLET NODE,OUTDOORAIR:MIXER,PSZ-AC_7:7_OAMIXING BOX,Inlet,1
 Non-Parent Node Connection,PSZ-AC_7:7_OARELIEF NODE,OUTDOORAIR:MIXER,PSZ-AC_7:7_OAMIXING BOX,ReliefAir,1
 Non-Parent Node Connection,PSZ-AC_7:7 SUPPLY EQUIPMENT INLET NODE,OUTDOORAIR:MIXER,PSZ-AC_7:7_OAMIXING BOX,Inlet,1
 Non-Parent Node Connection,PSZ-AC_8:8_OA-PSZ-AC_8:8_UNITARY_PACKAGENODE,OUTDOORAIR:MIXER,PSZ-AC_8:8_OAMIXING BOX,Outlet,1
 Non-Parent Node Connection,PSZ-AC_8:8_OAINLET NODE,OUTDOORAIR:MIXER,PSZ-AC_8:8_OAMIXING BOX,Inlet,1
 Non-Parent Node Connection,PSZ-AC_8:8_OARELIEF NODE,OUTDOORAIR:MIXER,PSZ-AC_8:8_OAMIXING BOX,ReliefAir,1
 Non-Parent Node Connection,PSZ-AC_8:8 SUPPLY EQUIPMENT INLET NODE,OUTDOORAIR:MIXER,PSZ-AC_8:8_OAMIXING BOX,Inlet,1
 Non-Parent Node Connection,PSZ-AC_9:9_OA-PSZ-AC_9:9_UNITARY_PACKAGENODE,OUTDOORAIR:MIXER,PSZ-AC_9:9_OAMIXING BOX,Outlet,1
 Non-Parent Node Connection,PSZ-AC_9:9_OAINLET NODE,OUTDOORAIR:MIXER,PSZ-AC_9:9_OAMIXING BOX,Inlet,1
 Non-Parent Node Connection,PSZ-AC_9:9_OARELIEF NODE,OUTDOORAIR:MIXER,PSZ-AC_9:9_OAMIXING BOX,ReliefAir,1
 Non-Parent Node Connection,PSZ-AC_9:9 SUPPLY EQUIPMENT INLET NODE,OUTDOORAIR:MIXER,PSZ-AC_9:9_OAMIXING BOX,Inlet,1
 Non-Parent Node Connection,PSZ-AC_10:10_OA-PSZ-AC_10:10_UNITARY_PACKAGENODE,CONTROLLER:OUTDOORAIR,PSZ-AC_10:10_OA_CONTROLLER,Sensor,1
 Non-Parent Node Connection,PSZ-AC_10:10_OAINLET NODE,CONTROLLER:OUTDOORAIR,PSZ-AC_10:10_OA_CONTROLLER,Actuator,1
 Non-Parent Node Connection,PSZ-AC_10:10_OARELIEF NODE,CONTROLLER:OUTDOORAIR,PSZ-AC_10:10_OA_CONTROLLER,Actuator,1
 Non-Parent Node Connection,PSZ-AC_10:10 SUPPLY EQUIPMENT INLET NODE,CONTROLLER:OUTDOORAIR,PSZ-AC_10:10_OA_CONTROLLER,Sensor,1
 Non-Parent Node Connection,PSZ-AC_1:1_OA-PSZ-AC_1:1_UNITARY_PACKAGENODE,CONTROLLER:OUTDOORAIR,PSZ-AC_1:1_OA_CONTROLLER,Sensor,1
 Non-Parent Node Connection,PSZ-AC_1:1_OAINLET NODE,CONTROLLER:OUTDOORAIR,PSZ-AC_1:1_OA_CONTROLLER,Actuator,1
 Non-Parent Node Connection,PSZ-AC_1:1_OARELIEF NODE,CONTROLLER:OUTDOORAIR,PSZ-AC_1:1_OA_CONTROLLER,Actuator,1
 Non-Parent Node Connection,PSZ-AC_1:1 SUPPLY EQUIPMENT INLET NODE,CONTROLLER:OUTDOORAIR,PSZ-AC_1:1_OA_CONTROLLER,Sensor,1
 Non-Parent Node Connection,PSZ-AC_2:2_OA-PSZ-AC_2:2_UNITARY_PACKAGENODE,CONTROLLER:OUTDOORAIR,PSZ-AC_2:2_OA_CONTROLLER,Sensor,1
 Non-Parent Node Connection,PSZ-AC_2:2_OAINLET NODE,CONTROLLER:OUTDOORAIR,PSZ-AC_2:2_OA_CONTROLLER,Actuator,1
 Non-Parent Node Connection,PSZ-AC_2:2_OARELIEF NODE,CONTROLLER:OUTDOORAIR,PSZ-AC_2:2_OA_CONTROLLER,Actuator,1
 Non-Parent Node Connection,PSZ-AC_2:2 SUPPLY EQUIPMENT INLET NODE,CONTROLLER:OUTDOORAIR,PSZ-AC_2:2_OA_CONTROLLER,Sensor,1
 Non-Parent Node Connection,PSZ-AC_3:3_OA-PSZ-AC_3:3_UNITARY_PACKAGENODE,CONTROLLER:OUTDOORAIR,PSZ-AC_3:3_OA_CONTROLLER,Sensor,1
 Non-Parent Node Connection,PSZ-AC_3:3_OAINLET NODE,CONTROLLER:OUTDOORAIR,PSZ-AC_3:3_OA_CONTROLLER,Actuator,1
 Non-Parent Node Connection,PSZ-AC_3:3_OARELIEF NODE,CONTROLLER:OUTDOORAIR,PSZ-AC_3:3_OA_CONTROLLER,Actuator,1
 Non-Parent Node Connection,PSZ-AC_3:3 SUPPLY EQUIPMENT INLET NODE,CONTROLLER:OUTDOORAIR,PSZ-AC_3:3_OA_CONTROLLER,Sensor,1
 Non-Parent Node Connection,PSZ-AC_4:4_OA-PSZ-AC_4:4_UNITARY_PACKAGENODE,CONTROLLER:OUTDOORAIR,PSZ-AC_4:4_OA_CONTROLLER,Sensor,1
 Non-Parent Node Connection,PSZ-AC_4:4_OAINLET NODE,CONTROLLER:OUTDOORAIR,PSZ-AC_4:4_OA_CONTROLLER,Actuator,1
 Non-Parent Node Connection,PSZ-AC_4:4_OARELIEF NODE,CONTROLLER:OUTDOORAIR,PSZ-AC_4:4_OA_CONTROLLER,Actuator,1
 Non-Parent Node Connection,PSZ-AC_4:4 SUPPLY EQUIPMENT INLET NODE,CONTROLLER:OUTDOORAIR,PSZ-AC_4:4_OA_CONTROLLER,Sensor,1
 Non-Parent Node Connection,PSZ-AC_5:5_OA-PSZ-AC_5:5_UNITARY_PACKAGENODE,CONTROLLER:OUTDOORAIR,PSZ-AC_5:5_OA_CONTROLLER,Sensor,1
 Non-Parent Node Connection,PSZ-AC_5:5_OAINLET NODE,CONTROLLER:OUTDOORAIR,PSZ-AC_5:5_OA_CONTROLLER,Actuator,1
 Non-Parent Node Connection,PSZ-AC_5:5_OARELIEF NODE,CONTROLLER:OUTDOORAIR,PSZ-AC_5:5_OA_CONTROLLER,Actuator,1
 Non-Parent Node Connection,PSZ-AC_5:5 SUPPLY EQUIPMENT INLET NODE,CONTROLLER:OUTDOORAIR,PSZ-AC_5:5_OA_CONTROLLER,Sensor,1
 Non-Parent Node Connection,PSZ-AC_6:6_OA-PSZ-AC_6:6_UNITARY_PACKAGENODE,CONTROLLER:OUTDOORAIR,PSZ-AC_6:6_OA_CONTROLLER,Sensor,1
 Non-Parent Node Connection,PSZ-AC_6:6_OAINLET NODE,CONTROLLER:OUTDOORAIR,PSZ-AC_6:6_OA_CONTROLLER,Actuator,1
 Non-Parent Node Connection,PSZ-AC_6:6_OARELIEF NODE,CONTROLLER:OUTDOORAIR,PSZ-AC_6:6_OA_CONTROLLER,Actuator,1
 Non-Parent Node Connection,PSZ-AC_6:6 SUPPLY EQUIPMENT INLET NODE,CONTROLLER:OUTDOORAIR,PSZ-AC_6:6_OA_CONTROLLER,Sensor,1
 Non-Parent Node Connection,PSZ-AC_7:7_OA-PSZ-AC_7:7_UNITARY_PACKAGENODE,CONTROLLER:OUTDOORAIR,PSZ-AC_7:7_OA_CONTROLLER,Sensor,1
 Non-Parent Node Connection,PSZ-AC_7:7_OAINLET NODE,CONTROLLER:OUTDOORAIR,PSZ-AC_7:7_OA_CONTROLLER,Actuator,1
 Non-Parent Node Connection,PSZ-AC_7:7_OARELIEF NODE,CONTROLLER:OUTDOORAIR,PSZ-AC_7:7_OA_CONTROLLER,Actuator,1
 Non-Parent Node Connection,PSZ-AC_7:7 SUPPLY EQUIPMENT INLET NODE,CONTROLLER:OUTDOORAIR,PSZ-AC_7:7_OA_CONTROLLER,Sensor,1
 Non-Parent Node Connection,PSZ-AC_8:8_OA-PSZ-AC_8:8_UNITARY_PACKAGENODE,CONTROLLER:OUTDOORAIR,PSZ-AC_8:8_OA_CONTROLLER,Sensor,1
 Non-Parent Node Connection,PSZ-AC_8:8_OAINLET NODE,CONTROLLER:OUTDOORAIR,PSZ-AC_8:8_OA_CONTROLLER,Actuator,1
 Non-Parent Node Connection,PSZ-AC_8:8_OARELIEF NODE,CONTROLLER:OUTDOORAIR,PSZ-AC_8:8_OA_CONTROLLER,Actuator,1
 Non-Parent Node Connection,PSZ-AC_8:8 SUPPLY EQUIPMENT INLET NODE,CONTROLLER:OUTDOORAIR,PSZ-AC_8:8_OA_CONTROLLER,Sensor,1
 Non-Parent Node Connection,PSZ-AC_9:9_OA-PSZ-AC_9:9_UNITARY_PACKAGENODE,CONTROLLER:OUTDOORAIR,PSZ-AC_9:9_OA_CONTROLLER,Sensor,1
 Non-Parent Node Connection,PSZ-AC_9:9_OAINLET NODE,CONTROLLER:OUTDOORAIR,PSZ-AC_9:9_OA_CONTROLLER,Actuator,1
 Non-Parent Node Connection,PSZ-AC_9:9_OARELIEF NODE,CONTROLLER:OUTDOORAIR,PSZ-AC_9:9_OA_CONTROLLER,Actuator,1
 Non-Parent Node Connection,PSZ-AC_9:9 SUPPLY EQUIPMENT INLET NODE,CONTROLLER:OUTDOORAIR,PSZ-AC_9:9_OA_CONTROLLER,Sensor,1
 Non-Parent Node Connection,PSZ-AC_10:10_OA-PSZ-AC_10:10_UNITARY_PACKAGENODE,FAN:ONOFF,PSZ-AC_10:10_UNITARY_PACKAGE_FAN,Inlet,1
 Non-Parent Node Connection,PSZ-AC_10:10_UNITARY_PACKAGECOOLCOIL AIR INLET,FAN:ONOFF,PSZ-AC_10:10_UNITARY_PACKAGE_FAN,Outlet,1
 Non-Parent Node Connection,PSZ-AC_1:1_OA-PSZ-AC_1:1_UNITARY_PACKAGENODE,FAN:ONOFF,PSZ-AC_1:1_UNITARY_PACKAGE_FAN,Inlet,1
 Non-Parent Node Connection,PSZ-AC_1:1_UNITARY_PACKAGECOOLCOIL AIR INLET,FAN:ONOFF,PSZ-AC_1:1_UNITARY_PACKAGE_FAN,Outlet,1
 Non-Parent Node Connection,PSZ-AC_2:2_OA-PSZ-AC_2:2_UNITARY_PACKAGENODE,FAN:ONOFF,PSZ-AC_2:2_UNITARY_PACKAGE_FAN,Inlet,1
 Non-Parent Node Connection,PSZ-AC_2:2_UNITARY_PACKAGECOOLCOIL AIR INLET,FAN:ONOFF,PSZ-AC_2:2_UNITARY_PACKAGE_FAN,Outlet,1
 Non-Parent Node Connection,PSZ-AC_3:3_OA-PSZ-AC_3:3_UNITARY_PACKAGENODE,FAN:ONOFF,PSZ-AC_3:3_UNITARY_PACKAGE_FAN,Inlet,1
 Non-Parent Node Connection,PSZ-AC_3:3_UNITARY_PACKAGECOOLCOIL AIR INLET,FAN:ONOFF,PSZ-AC_3:3_UNITARY_PACKAGE_FAN,Outlet,1
 Non-Parent Node Connection,PSZ-AC_4:4_OA-PSZ-AC_4:4_UNITARY_PACKAGENODE,FAN:ONOFF,PSZ-AC_4:4_UNITARY_PACKAGE_FAN,Inlet,1
 Non-Parent Node Connection,PSZ-AC_4:4_UNITARY_PACKAGECOOLCOIL AIR INLET,FAN:ONOFF,PSZ-AC_4:4_UNITARY_PACKAGE_FAN,Outlet,1
 Non-Parent Node Connection,PSZ-AC_5:5_OA-PSZ-AC_5:5_UNITARY_PACKAGENODE,FAN:ONOFF,PSZ-AC_5:5_UNITARY_PACKAGE_FAN,Inlet,1
 Non-Parent Node Connection,PSZ-AC_5:5_UNITARY_PACKAGECOOLCOIL AIR INLET,FAN:ONOFF,PSZ-AC_5:5_UNITARY_PACKAGE_FAN,Outlet,1
 Non-Parent Node Connection,PSZ-AC_6:6_OA-PSZ-AC_6:6_UNITARY_PACKAGENODE,FAN:ONOFF,PSZ-AC_6:6_UNITARY_PACKAGE_FAN,Inlet,1
 Non-Parent Node Connection,PSZ-AC_6:6_UNITARY_PACKAGECOOLCOIL AIR INLET,FAN:ONOFF,PSZ-AC_6:6_UNITARY_PACKAGE_FAN,Outlet,1
 Non-Parent Node Connection,PSZ-AC_7:7_OA-PSZ-AC_7:7_UNITARY_PACKAGENODE,FAN:ONOFF,PSZ-AC_7:7_UNITARY_PACKAGE_FAN,Inlet,1
 Non-Parent Node Connection,PSZ-AC_7:7_UNITARY_PACKAGECOOLCOIL AIR INLET,FAN:ONOFF,PSZ-AC_7:7_UNITARY_PACKAGE_FAN,Outlet,1
 Non-Parent Node Connection,PSZ-AC_8:8_OA-PSZ-AC_8:8_UNITARY_PACKAGENODE,FAN:ONOFF,PSZ-AC_8:8_UNITARY_PACKAGE_FAN,Inlet,1
 Non-Parent Node Connection,PSZ-AC_8:8_UNITARY_PACKAGECOOLCOIL AIR INLET,FAN:ONOFF,PSZ-AC_8:8_UNITARY_PACKAGE_FAN,Outlet,1
 Non-Parent Node Connection,PSZ-AC_9:9_OA-PSZ-AC_9:9_UNITARY_PACKAGENODE,FAN:ONOFF,PSZ-AC_9:9_UNITARY_PACKAGE_FAN,Inlet,1
 Non-Parent Node Connection,PSZ-AC_9:9_UNITARY_PACKAGECOOLCOIL AIR INLET,FAN:ONOFF,PSZ-AC_9:9_UNITARY_PACKAGE_FAN,Outlet,1
 Non-Parent Node Connection,PSZ-AC_10:10_UNITARY_PACKAGEHEATCOIL AIR INLET,COIL:HEATING:FUEL,PSZ-AC_10:10_UNITARY_PACKAGE_HEATCOIL,Inlet,1
 Non-Parent Node Connection,PSZ-AC_10:10 SUPPLY EQUIPMENT OUTLET NODE,COIL:HEATING:FUEL,PSZ-AC_10:10_UNITARY_PACKAGE_HEATCOIL,Outlet,1
 Non-Parent Node Connection,PSZ-AC_1:1_UNITARY_PACKAGEHEATCOIL AIR INLET,COIL:HEATING:FUEL,PSZ-AC_1:1_UNITARY_PACKAGE_HEATCOIL,Inlet,1
 Non-Parent Node Connection,PSZ-AC_1:1 SUPPLY EQUIPMENT OUTLET NODE,COIL:HEATING:FUEL,PSZ-AC_1:1_UNITARY_PACKAGE_HEATCOIL,Outlet,1
 Non-Parent Node Connection,PSZ-AC_2:2_UNITARY_PACKAGEHEATCOIL AIR INLET,COIL:HEATING:FUEL,PSZ-AC_2:2_UNITARY_PACKAGE_HEATCOIL,Inlet,1
 Non-Parent Node Connection,PSZ-AC_2:2 SUPPLY EQUIPMENT OUTLET NODE,COIL:HEATING:FUEL,PSZ-AC_2:2_UNITARY_PACKAGE_HEATCOIL,Outlet,1
 Non-Parent Node Connection,PSZ-AC_3:3_UNITARY_PACKAGEHEATCOIL AIR INLET,COIL:HEATING:FUEL,PSZ-AC_3:3_UNITARY_PACKAGE_HEATCOIL,Inlet,1
 Non-Parent Node Connection,PSZ-AC_3:3 SUPPLY EQUIPMENT OUTLET NODE,COIL:HEATING:FUEL,PSZ-AC_3:3_UNITARY_PACKAGE_HEATCOIL,Outlet,1
 Non-Parent Node Connection,PSZ-AC_4:4_UNITARY_PACKAGEHEATCOIL AIR INLET,COIL:HEATING:FUEL,PSZ-AC_4:4_UNITARY_PACKAGE_HEATCOIL,Inlet,1
 Non-Parent Node Connection,PSZ-AC_4:4 SUPPLY EQUIPMENT OUTLET NODE,COIL:HEATING:FUEL,PSZ-AC_4:4_UNITARY_PACKAGE_HEATCOIL,Outlet,1
 Non-Parent Node Connection,PSZ-AC_5:5_UNITARY_PACKAGEHEATCOIL AIR INLET,COIL:HEATING:FUEL,PSZ-AC_5:5_UNITARY_PACKAGE_HEATCOIL,Inlet,1
 Non-Parent Node Connection,PSZ-AC_5:5 SUPPLY EQUIPMENT OUTLET NODE,COIL:HEATING:FUEL,PSZ-AC_5:5_UNITARY_PACKAGE_HEATCOIL,Outlet,1
 Non-Parent Node Connection,PSZ-AC_6:6_UNITARY_PACKAGEHEATCOIL AIR INLET,COIL:HEATING:FUEL,PSZ-AC_6:6_UNITARY_PACKAGE_HEATCOIL,Inlet,1
 Non-Parent Node Connection,PSZ-AC_6:6 SUPPLY EQUIPMENT OUTLET NODE,COIL:HEATING:FUEL,PSZ-AC_6:6_UNITARY_PACKAGE_HEATCOIL,Outlet,1
 Non-Parent Node Connection,PSZ-AC_7:7_UNITARY_PACKAGEHEATCOIL AIR INLET,COIL:HEATING:FUEL,PSZ-AC_7:7_UNITARY_PACKAGE_HEATCOIL,Inlet,1
 Non-Parent Node Connection,PSZ-AC_7:7 SUPPLY EQUIPMENT OUTLET NODE,COIL:HEATING:FUEL,PSZ-AC_7:7_UNITARY_PACKAGE_HEATCOIL,Outlet,1
 Non-Parent Node Connection,PSZ-AC_8:8_UNITARY_PACKAGEHEATCOIL AIR INLET,COIL:HEATING:FUEL,PSZ-AC_8:8_UNITARY_PACKAGE_HEATCOIL,Inlet,1
 Non-Parent Node Connection,PSZ-AC_8:8 SUPPLY EQUIPMENT OUTLET NODE,COIL:HEATING:FUEL,PSZ-AC_8:8_UNITARY_PACKAGE_HEATCOIL,Outlet,1
 Non-Parent Node Connection,PSZ-AC_9:9_UNITARY_PACKAGEHEATCOIL AIR INLET,COIL:HEATING:FUEL,PSZ-AC_9:9_UNITARY_PACKAGE_HEATCOIL,Inlet,1
 Non-Parent Node Connection,PSZ-AC_9:9 SUPPLY EQUIPMENT OUTLET NODE,COIL:HEATING:FUEL,PSZ-AC_9:9_UNITARY_PACKAGE_HEATCOIL,Outlet,1
 Non-Parent Node Connection,PSZ-AC_10:10_UNITARY_PACKAGECOOLCOIL AIR INLET,COIL:COOLING:DX:SINGLESPEED,PSZ-AC_10:10_UNITARY_PACKAGE_COOLCOIL,Inlet,1
 Non-Parent Node Connection,PSZ-AC_10:10_UNITARY_PACKAGEHEATCOIL AIR INLET,COIL:COOLING:DX:SINGLESPEED,PSZ-AC_10:10_UNITARY_PACKAGE_COOLCOIL,Outlet,1
 Non-Parent Node Connection,PSZ-AC_1:1_UNITARY_PACKAGECOOLCOIL AIR INLET,COIL:COOLING:DX:SINGLESPEED,PSZ-AC_1:1_UNITARY_PACKAGE_COOLCOIL,Inlet,1
 Non-Parent Node Connection,PSZ-AC_1:1_UNITARY_PACKAGEHEATCOIL AIR INLET,COIL:COOLING:DX:SINGLESPEED,PSZ-AC_1:1_UNITARY_PACKAGE_COOLCOIL,Outlet,1
 Non-Parent Node Connection,PSZ-AC_2:2_UNITARY_PACKAGECOOLCOIL AIR INLET,COIL:COOLING:DX:SINGLESPEED,PSZ-AC_2:2_UNITARY_PACKAGE_COOLCOIL,Inlet,1
 Non-Parent Node Connection,PSZ-AC_2:2_UNITARY_PACKAGEHEATCOIL AIR INLET,COIL:COOLING:DX:SINGLESPEED,PSZ-AC_2:2_UNITARY_PACKAGE_COOLCOIL,Outlet,1
 Non-Parent Node Connection,PSZ-AC_3:3_UNITARY_PACKAGECOOLCOIL AIR INLET,COIL:COOLING:DX:SINGLESPEED,PSZ-AC_3:3_UNITARY_PACKAGE_COOLCOIL,Inlet,1
 Non-Parent Node Connection,PSZ-AC_3:3_UNITARY_PACKAGEHEATCOIL AIR INLET,COIL:COOLING:DX:SINGLESPEED,PSZ-AC_3:3_UNITARY_PACKAGE_COOLCOIL,Outlet,1
 Non-Parent Node Connection,PSZ-AC_4:4_UNITARY_PACKAGECOOLCOIL AIR INLET,COIL:COOLING:DX:SINGLESPEED,PSZ-AC_4:4_UNITARY_PACKAGE_COOLCOIL,Inlet,1
 Non-Parent Node Connection,PSZ-AC_4:4_UNITARY_PACKAGEHEATCOIL AIR INLET,COIL:COOLING:DX:SINGLESPEED,PSZ-AC_4:4_UNITARY_PACKAGE_COOLCOIL,Outlet,1
 Non-Parent Node Connection,PSZ-AC_5:5_UNITARY_PACKAGECOOLCOIL AIR INLET,COIL:COOLING:DX:SINGLESPEED,PSZ-AC_5:5_UNITARY_PACKAGE_COOLCOIL,Inlet,1
 Non-Parent Node Connection,PSZ-AC_5:5_UNITARY_PACKAGEHEATCOIL AIR INLET,COIL:COOLING:DX:SINGLESPEED,PSZ-AC_5:5_UNITARY_PACKAGE_COOLCOIL,Outlet,1
 Non-Parent Node Connection,PSZ-AC_6:6_UNITARY_PACKAGECOOLCOIL AIR INLET,COIL:COOLING:DX:SINGLESPEED,PSZ-AC_6:6_UNITARY_PACKAGE_COOLCOIL,Inlet,1
 Non-Parent Node Connection,PSZ-AC_6:6_UNITARY_PACKAGEHEATCOIL AIR INLET,COIL:COOLING:DX:SINGLESPEED,PSZ-AC_6:6_UNITARY_PACKAGE_COOLCOIL,Outlet,1
 Non-Parent Node Connection,PSZ-AC_7:7_UNITARY_PACKAGECOOLCOIL AIR INLET,COIL:COOLING:DX:SINGLESPEED,PSZ-AC_7:7_UNITARY_PACKAGE_COOLCOIL,Inlet,1
 Non-Parent Node Connection,PSZ-AC_7:7_UNITARY_PACKAGEHEATCOIL AIR INLET,COIL:COOLING:DX:SINGLESPEED,PSZ-AC_7:7_UNITARY_PACKAGE_COOLCOIL,Outlet,1
 Non-Parent Node Connection,PSZ-AC_8:8_UNITARY_PACKAGECOOLCOIL AIR INLET,COIL:COOLING:DX:SINGLESPEED,PSZ-AC_8:8_UNITARY_PACKAGE_COOLCOIL,Inlet,1
 Non-Parent Node Connection,PSZ-AC_8:8_UNITARY_PACKAGEHEATCOIL AIR INLET,COIL:COOLING:DX:SINGLESPEED,PSZ-AC_8:8_UNITARY_PACKAGE_COOLCOIL,Outlet,1
 Non-Parent Node Connection,PSZ-AC_9:9_UNITARY_PACKAGECOOLCOIL AIR INLET,COIL:COOLING:DX:SINGLESPEED,PSZ-AC_9:9_UNITARY_PACKAGE_COOLCOIL,Inlet,1
 Non-Parent Node Connection,PSZ-AC_9:9_UNITARY_PACKAGEHEATCOIL AIR INLET,COIL:COOLING:DX:SINGLESPEED,PSZ-AC_9:9_UNITARY_PACKAGE_COOLCOIL,Outlet,1
